<?xml version="1.0" encoding="UTF-8"?>

<!-- generated on 2025-05-10 13:49:02.290423 by randomTrips.py v1_22_0+0002-63e50f52594
<configuration>
    <net-file value="NewCastle.net.xml"/>
    <output-trip-file value="NewCastle.rou.xml"/>
    <validate value="True"/>
    <end value="300.0"/>
    <period value="1.0"/>
</configuration>
-->

<!-- generated on 2025-05-10 13:49:01 by Eclipse SUMO duarouter Version 1.22.0
<duarouterConfiguration xmlns:xsi="http://www.w3.org/2001/XMLSchema-instance" xsi:noNamespaceSchemaLocation="http://sumo.dlr.de/xsd/duarouterConfiguration.xsd">

    <input>
        <net-file value="NewCastle.net.xml"/>
        <route-files value="NewCastle.rou.xml"/>
    </input>

    <output>
        <output-file value="NewCastle.rou.xml.tmp"/>
        <alternatives-output value="NUL"/>
        <write-trips value="true"/>
    </output>

    <time>
        <begin value="0.0"/>
        <end value="300.0"/>
    </time>

    <report>
        <no-warnings value="true"/>
        <ignore-errors value="true"/>
        <no-step-log value="true"/>
    </report>

</duarouterConfiguration>
-->

<routes xmlns:xsi="http://www.w3.org/2001/XMLSchema-instance" xsi:noNamespaceSchemaLocation="http://sumo.dlr.de/xsd/routes_file.xsd">
    <trip id="0" depart="0.00" from="27761399#1" to="-11967564#5"/>
    <trip id="1" depart="1.00" from="-68085008#2" to="-4644976#0"/>
    <trip id="3" depart="3.00" from="68756027#1" to="-230845568"/>
    <trip id="4" depart="4.00" from="-823361292#7" to="-11967574#1"/>
    <trip id="6" depart="6.00" from="-11967570#1" to="-35742485#10"/>
    <trip id="7" depart="7.00" from="27917719" to="137354726#1"/>
    <trip id="8" depart="8.00" from="-43794239#7" to="23238176#0"/>
    <trip id="9" depart="9.00" from="68569226#1" to="-1026085894#0"/>
    <trip id="10" depart="10.00" from="68569222#1" to="31992865#5"/>
    <trip id="11" depart="11.00" from="-68581597#1" to="-2542479#8"/>
    <trip id="12" depart="12.00" from="72860649#1" to="-68580793#1"/>
    <trip id="13" depart="13.00" from="-23238107#5" to="-23238116#1"/>
    <trip id="14" depart="14.00" from="68581511" to="23485026#5"/>
    <trip id="15" depart="15.00" from="68569222#14" to="460765372#0"/>
    <trip id="16" depart="16.00" from="182926053#23" to="860298903#11"/>
    <trip id="17" depart="17.00" from="-68876118#1" to="154692743"/>
    <trip id="18" depart="18.00" from="68580000#4" to="23656277#3"/>
    <trip id="19" depart="19.00" from="68588210" to="230843457"/>
    <trip id="20" depart="20.00" from="460765373#0" to="-12475246#2"/>
    <trip id="21" depart="21.00" from="-4644976#1" to="-68569129#0"/>
    <trip id="22" depart="22.00" from="-230239893#1" to="-47290415#9"/>
    <trip id="23" depart="23.00" from="-23247494#0" to="-68360003#1"/>
    <trip id="24" depart="24.00" from="27761389#1" to="-68741742"/>
    <trip id="25" depart="25.00" from="-68876080#1" to="-364338945#1"/>
    <trip id="26" depart="26.00" from="-68083822#1" to="69042223#2"/>
    <trip id="27" depart="27.00" from="27761422#7" to="23589346#11"/>
    <trip id="28" depart="28.00" from="-27761393#1" to="460739363"/>
    <trip id="29" depart="29.00" from="-262609623#5" to="-68741795#2"/>
    <trip id="30" depart="30.00" from="923840881#0" to="2535350#0"/>
    <trip id="31" depart="31.00" from="23238107#12" to="28907928#2"/>
    <trip id="32" depart="32.00" from="68580794" to="658966229"/>
    <trip id="33" depart="33.00" from="-4655478#10" to="-121679883#5"/>
    <trip id="34" depart="34.00" from="-68579990" to="-68084991"/>
    <trip id="35" depart="35.00" from="-364336497" to="691360491#0"/>
    <trip id="36" depart="36.00" from="68741748#1" to="-68579551#10"/>
    <trip id="37" depart="37.00" from="28446314#1" to="-68876126"/>
    <trip id="38" depart="38.00" from="68876124" to="-926028933"/>
    <trip id="39" depart="39.00" from="-68083817#1" to="-616801488#7"/>
    <trip id="40" depart="40.00" from="23238113#5" to="-68083818#0"/>
    <trip id="41" depart="41.00" from="23589345#7" to="68756012#0"/>
    <trip id="42" depart="42.00" from="-69045363#2" to="-458113203#0"/>
    <trip id="43" depart="43.00" from="990834100" to="121679907#0"/>
    <trip id="44" depart="44.00" from="-23238107#0" to="-12475246#8"/>
    <trip id="45" depart="45.00" from="-23299705#1" to="23914882#0"/>
    <trip id="46" depart="46.00" from="68565941" to="-69045365#2"/>
    <trip id="47" depart="47.00" from="-14035499" to="-68756144"/>
    <trip id="48" depart="48.00" from="972860677" to="1262906172#1"/>
    <trip id="49" depart="49.00" from="858813354#1" to="68580869#2"/>
    <trip id="50" depart="50.00" from="-104361306#7" to="41526718#0"/>
    <trip id="52" depart="52.00" from="-68083822#0" to="2535381#2"/>
    <trip id="53" depart="53.00" from="-23299705#8" to="-72860649#0"/>
    <trip id="54" depart="54.00" from="1035378551" to="72860640#2"/>
    <trip id="55" depart="55.00" from="68741747#2" to="-68083819#0"/>
    <trip id="56" depart="56.00" from="12475243#2" to="-27761422#7"/>
    <trip id="57" depart="57.00" from="68876117#0" to="68581602#1"/>
    <trip id="58" depart="58.00" from="-68569222#13" to="2534525#3"/>
    <trip id="59" depart="59.00" from="24440154#1" to="-2541944#6"/>
    <trip id="60" depart="60.00" from="68083810#0" to="133499410#0"/>
    <trip id="61" depart="61.00" from="683436408#0" to="1279995496#3"/>
    <trip id="62" depart="62.00" from="-1003195821#2" to="-68580001#1"/>
    <trip id="63" depart="63.00" from="-1159707571" to="68876152#1"/>
    <trip id="64" depart="64.00" from="68741754#1" to="68579123#1"/>
    <trip id="65" depart="65.00" from="-68579542#3" to="-134818130#2"/>
    <trip id="66" depart="66.00" from="68741752" to="694151967#1"/>
    <trip id="68" depart="68.00" from="-182926053#13" to="551737192#0"/>
    <trip id="69" depart="69.00" from="68083817#0" to="-23685579"/>
    <trip id="70" depart="70.00" from="11967564#14" to="13859436#3"/>
    <trip id="71" depart="71.00" from="-68083818#0" to="68581612#2"/>
    <trip id="72" depart="72.00" from="-844049948#2" to="-366963136#1"/>
    <trip id="73" depart="73.00" from="182926053#35" to="460765372#1"/>
    <trip id="74" depart="74.00" from="-35742485#1" to="-68579545"/>
    <trip id="75" depart="75.00" from="953787091" to="2570430#0"/>
    <trip id="76" depart="76.00" from="-926028934#3" to="121722150#0"/>
    <trip id="77" depart="77.00" from="-23589346#17" to="-4655478#10"/>
    <trip id="78" depart="78.00" from="-68581565#3" to="23238116#2"/>
    <trip id="79" depart="79.00" from="-4655478#15" to="-460739363"/>
    <trip id="80" depart="80.00" from="-182926053#20" to="24440150#5"/>
    <trip id="81" depart="81.00" from="-4655478#10" to="68756086#2"/>
    <trip id="82" depart="82.00" from="68581612#1" to="-182926053#26"/>
    <trip id="83" depart="83.00" from="-5024005#11" to="27761417"/>
    <trip id="84" depart="84.00" from="-366963136#3" to="-23805080"/>
    <trip id="85" depart="85.00" from="69042222#3" to="230834613#2"/>
    <trip id="86" depart="86.00" from="1176249920#3" to="675009836"/>
    <trip id="87" depart="87.00" from="68569222#3" to="-30118272#0"/>
    <trip id="88" depart="88.00" from="-23238114#2" to="-72860639#1"/>
    <trip id="89" depart="89.00" from="-859353074" to="-996141195#0"/>
    <trip id="90" depart="90.00" from="5024005#9" to="27761422#7"/>
    <trip id="91" depart="91.00" from="921453988#0" to="-23238176#2"/>
    <trip id="92" depart="92.00" from="-694151962#1" to="-68580869#1"/>
    <trip id="93" depart="93.00" from="68588210" to="-629018360#5"/>
    <trip id="94" depart="94.00" from="-28446421#5" to="-860298903#3"/>
    <trip id="95" depart="95.00" from="-823361292#6" to="-68360003#3"/>
    <trip id="96" depart="96.00" from="-616801488#8" to="68876133#2"/>
    <trip id="98" depart="98.00" from="230838772#1" to="-1301170619#1"/>
    <trip id="99" depart="99.00" from="996141194#1" to="68579543#0"/>
    <trip id="100" depart="100.00" from="823361292#8" to="68876140#1"/>
    <trip id="101" depart="101.00" from="68581514#1" to="-27761389#1"/>
    <trip id="102" depart="102.00" from="121675933#8" to="-38101989#2"/>
    <trip id="103" depart="103.00" from="-69071681#1" to="-135711913#0"/>
    <trip id="105" depart="105.00" from="-68083818#1" to="673102541"/>
    <trip id="106" depart="106.00" from="104361306#0" to="-69071681#0"/>
    <trip id="107" depart="107.00" from="72860649#2" to="953787091"/>
    <trip id="108" depart="108.00" from="230846290#5" to="383833008#0"/>
    <trip id="109" depart="109.00" from="-2541944#5" to="-68569173#7"/>
    <trip id="110" depart="110.00" from="823361292#7" to="230846290#2"/>
    <trip id="111" depart="111.00" from="230239475" to="47290415#10"/>
    <trip id="112" depart="112.00" from="-134411713#3" to="23238108#4"/>
    <trip id="113" depart="113.00" from="12475246#1" to="68580629#1"/>
    <trip id="114" depart="114.00" from="-2542479#7" to="733897224"/>
    <trip id="115" depart="115.00" from="-230239893#2" to="-28446317#0"/>
    <trip id="116" depart="116.00" from="23685578#0" to="27917719"/>
    <trip id="117" depart="117.00" from="-47290415#2" to="-23589346#17"/>
    <trip id="118" depart="118.00" from="68756016#3" to="-616801488#5"/>
    <trip id="119" depart="119.00" from="23656277#2" to="23685580#2"/>
    <trip id="120" depart="120.00" from="-775996047#1" to="23238108#2"/>
    <trip id="121" depart="121.00" from="137355167#2" to="69042221#2"/>
    <trip id="122" depart="122.00" from="-35742485#21" to="379735791#0"/>
    <trip id="123" depart="123.00" from="-5024005#14" to="-68876127#0"/>
    <trip id="124" depart="124.00" from="31992852#5" to="-68569222#1"/>
    <trip id="125" depart="125.00" from="-68579992#2" to="5024005#13"/>
    <trip id="126" depart="126.00" from="-182926053#26" to="-923840881#0"/>
    <trip id="127" depart="127.00" from="996101630#2" to="958643361#1"/>
    <trip id="128" depart="128.00" from="-182926053#29" to="-38101989#0"/>
    <trip id="129" depart="129.00" from="-68083818#1" to="69042218#1"/>
    <trip id="130" depart="130.00" from="68741756#4" to="68741733#1"/>
    <trip id="131" depart="131.00" from="-68876071#4" to="-262609609"/>
    <trip id="132" depart="132.00" from="68580624#1" to="35742485#13"/>
    <trip id="133" depart="133.00" from="24525435#0" to="923824913#0"/>
    <trip id="134" depart="134.00" from="27917722#2" to="-1026438673#0"/>
    <trip id="135" depart="135.00" from="68579543#1" to="-68569208"/>
    <trip id="136" depart="136.00" from="30118272#0" to="69045356#2"/>
    <trip id="137" depart="137.00" from="-23805084" to="-23485033#2"/>
    <trip id="138" depart="138.00" from="-23299699#2" to="172336700#0"/>
    <trip id="139" depart="139.00" from="-68085006#1" to="23485029#0"/>
    <trip id="141" depart="141.00" from="27761384#5" to="-68083819#3"/>
    <trip id="142" depart="142.00" from="121679907#12" to="68756086#2"/>
    <trip id="143" depart="143.00" from="68580869#4" to="-23238108#1"/>
    <trip id="144" depart="144.00" from="-859353074" to="-683436413#6"/>
    <trip id="145" depart="145.00" from="-1003195824" to="641651028#2"/>
    <trip id="146" depart="146.00" from="27761392#1" to="-68083815#0"/>
    <trip id="147" depart="147.00" from="62310515#0" to="146295804#1"/>
    <trip id="148" depart="148.00" from="-860298903#5" to="-104361306#0"/>
    <trip id="149" depart="149.00" from="-182926053#4" to="68741740#6"/>
    <trip id="150" depart="150.00" from="68876080#2" to="137355167#1"/>
    <trip id="151" depart="151.00" from="68580625#2" to="23238107#7"/>
    <trip id="152" depart="152.00" from="-24829907#1" to="-23656277#2"/>
    <trip id="153" depart="153.00" from="-68579544#0" to="68756016#3"/>
    <trip id="154" depart="154.00" from="68569134" to="68580869#2"/>
    <trip id="155" depart="155.00" from="68756110#4" to="-364338945#3"/>
    <trip id="156" depart="156.00" from="-616801488#7" to="-23299697#1"/>
    <trip id="157" depart="157.00" from="683436413#1" to="68741744#3"/>
    <trip id="158" depart="158.00" from="-71181686#4" to="23685584#2"/>
    <trip id="159" depart="159.00" from="-2541944#3" to="68876154#0"/>
    <trip id="160" depart="160.00" from="68741720#2" to="860298903#5"/>
    <trip id="161" depart="161.00" from="68579122#2" to="68741738#1"/>
    <trip id="162" depart="162.00" from="-11967564#5" to="4655478#10"/>
    <trip id="163" depart="163.00" from="-68580869#1" to="68876154#4"/>
    <trip id="164" depart="164.00" from="68569173#5" to="68581530#1"/>
    <trip id="165" depart="165.00" from="68579122#2" to="-68083824#1"/>
    <trip id="166" depart="166.00" from="68565677#1" to="-23299705#10"/>
    <trip id="167" depart="167.00" from="68741740#5" to="68580796#0"/>
    <trip id="168" depart="168.00" from="-458113203#1" to="68569119#1"/>
    <trip id="169" depart="169.00" from="1053979388#1" to="-68579122#4"/>
    <trip id="170" depart="170.00" from="68569127#3" to="-4655478#5"/>
    <trip id="171" depart="171.00" from="-11967564#15" to="-30118572#2"/>
    <trip id="172" depart="172.00" from="-68580639" to="68581532#0"/>
    <trip id="173" depart="173.00" from="823361292#1" to="-68360004#2"/>
    <trip id="174" depart="174.00" from="27761410" to="-68876135#3"/>
    <trip id="176" depart="176.00" from="69045360#0" to="-23485033#2"/>
    <trip id="177" depart="177.00" from="844049948#1" to="-27761422#6"/>
    <trip id="178" depart="178.00" from="751613409#1" to="-68083822#4"/>
    <trip id="179" depart="179.00" from="-23299699#8" to="-72860647#1"/>
    <trip id="180" depart="180.00" from="5024005#7" to="-68579549#1"/>
    <trip id="181" depart="181.00" from="23955073" to="121679907#16"/>
    <trip id="182" depart="182.00" from="-68876140#1" to="230843128#1"/>
    <trip id="183" depart="183.00" from="-650010533#1" to="35823680#1"/>
    <trip id="184" depart="184.00" from="-1003195823#1" to="68876135#8"/>
    <trip id="185" depart="185.00" from="182926053#31" to="401595498"/>
    <trip id="186" depart="186.00" from="62316911#0" to="27761421#3"/>
    <trip id="187" depart="187.00" from="-68741785" to="-182926053#22"/>
    <trip id="188" depart="188.00" from="30118272#3" to="-68580629#2"/>
    <trip id="189" depart="189.00" from="-68579984#0" to="68580000#5"/>
    <trip id="190" depart="190.00" from="4725451#0" to="-68569222#11"/>
    <trip id="191" depart="191.00" from="-68579548#0" to="-68876155#1"/>
    <trip id="192" depart="192.00" from="-694151962#0" to="-68569173#2"/>
    <trip id="193" depart="193.00" from="-23589350" to="-69045361"/>
    <trip id="194" depart="194.00" from="69045363#1" to="27917720#4"/>
    <trip id="195" depart="195.00" from="68876073" to="23589348#4"/>
    <trip id="196" depart="196.00" from="-68569226#0" to="137378067#0"/>
    <trip id="197" depart="197.00" from="-1003195821#1" to="-68565942#2"/>
    <trip id="198" depart="198.00" from="-863098163#2" to="230846290#5"/>
    <trip id="199" depart="199.00" from="27917726" to="-985837487"/>
    <trip id="200" depart="200.00" from="-953082529#2" to="-38101989#2"/>
    <trip id="201" depart="201.00" from="1176249920#6" to="68756039#0"/>
    <trip id="202" depart="202.00" from="68569131" to="-27761397"/>
    <trip id="203" depart="203.00" from="-230835691#2" to="121679911#6"/>
    <trip id="204" depart="204.00" from="27155165#1" to="-68580649#0"/>
    <trip id="205" depart="205.00" from="68579548#0" to="5024005#10"/>
    <trip id="207" depart="207.00" from="-354671650#0" to="-11967564#2"/>
    <trip id="208" depart="208.00" from="-551737191#1" to="1026438672#0"/>
    <trip id="209" depart="209.00" from="68581532#0" to="-182926053#33"/>
    <trip id="210" depart="210.00" from="-734758110#0" to="24440150#0"/>
    <trip id="212" depart="212.00" from="121679913#1" to="-616801488#1"/>
    <trip id="213" depart="213.00" from="28446316#1" to="-102540368#0"/>
    <trip id="215" depart="215.00" from="-23299699#1" to="-694151962#3"/>
    <trip id="216" depart="216.00" from="-27761411#4" to="729244957#0"/>
    <trip id="217" depart="217.00" from="134411713#2" to="-1301170619#0"/>
    <trip id="218" depart="218.00" from="-616801488#5" to="68580001#0"/>
    <trip id="219" depart="219.00" from="104361306#6" to="683436407#1"/>
    <trip id="221" depart="221.00" from="23685579" to="71181686#3"/>
    <trip id="222" depart="222.00" from="68756023#0" to="23589346#5"/>
    <trip id="224" depart="224.00" from="68580005" to="137378067#0"/>
    <trip id="225" depart="225.00" from="68756091#1" to="4662075#1"/>
    <trip id="226" depart="226.00" from="11967564#12" to="-68083810#0"/>
    <trip id="227" depart="227.00" from="-616801488#10" to="24829910#0"/>
    <trip id="228" depart="228.00" from="68083817#0" to="12475243#0"/>
    <trip id="229" depart="229.00" from="258625107#2" to="-683436410#0"/>
    <trip id="230" depart="230.00" from="-230239475" to="-68565936#0"/>
    <trip id="231" depart="231.00" from="-68085000" to="-68579992#1"/>
    <trip id="232" depart="232.00" from="182926053#7" to="-23914888"/>
    <trip id="234" depart="234.00" from="463680864#0" to="-172336700#0"/>
    <trip id="235" depart="235.00" from="-723584180#0" to="135711911#0"/>
    <trip id="236" depart="236.00" from="-751613409#1" to="-35823681#4"/>
    <trip id="237" depart="237.00" from="-823361292#1" to="68756086#0"/>
    <trip id="239" depart="239.00" from="68581600#3" to="616801488#7"/>
    <trip id="240" depart="240.00" from="-68876131#1" to="-102540368#1"/>
    <trip id="241" depart="241.00" from="-68741740#3" to="5024005#7"/>
    <trip id="242" depart="242.00" from="68581570" to="72860639#3"/>
    <trip id="243" depart="243.00" from="-765042628" to="47290415#1"/>
    <trip id="244" depart="244.00" from="230820329#5" to="23485026#3"/>
    <trip id="245" depart="245.00" from="-43794239#7" to="-458113203#0"/>
    <trip id="246" depart="246.00" from="-923832520#2" to="-11967573#5"/>
    <trip id="247" depart="247.00" from="-68581532#0" to="27917722#2"/>
    <trip id="248" depart="248.00" from="-694151963#1" to="-27761384#5"/>
    <trip id="249" depart="249.00" from="1104711984" to="-23656277#3"/>
    <trip id="250" depart="250.00" from="2542479#2" to="-11967570#2"/>
    <trip id="251" depart="251.00" from="-69042222#0" to="182926053#8"/>
    <trip id="252" depart="252.00" from="-11967570#4" to="2535383#2"/>
    <trip id="253" depart="253.00" from="-23805085#5" to="-94511068#2"/>
    <trip id="254" depart="254.00" from="-1301170619#0" to="-68741795#1"/>
    <trip id="255" depart="255.00" from="-364338945#1" to="-68580622"/>
    <trip id="256" depart="256.00" from="678286765#7" to="-68741795#1"/>
    <trip id="257" depart="257.00" from="658966233#1" to="68579129#0"/>
    <trip id="258" depart="258.00" from="-641651028#2" to="-230835688"/>
    <trip id="259" depart="259.00" from="-1125251251" to="133499410#0"/>
    <trip id="260" depart="260.00" from="996141195#2" to="-68581600#0"/>
    <trip id="261" depart="261.00" from="27917720#0" to="665724081#1"/>
    <trip id="262" depart="262.00" from="27917720#3" to="5024047#1"/>
    <trip id="263" depart="263.00" from="71181686#1" to="-35742485#12"/>
    <trip id="264" depart="264.00" from="-1176249920#0" to="-2541944#4"/>
    <trip id="265" depart="265.00" from="-23589348#5" to="27761419#2"/>
    <trip id="266" depart="266.00" from="23238116#2" to="-458113201#0"/>
    <trip id="268" depart="268.00" from="-27761384#7" to="23589345#3"/>
    <trip id="269" depart="269.00" from="641659902#6" to="-23485030#0"/>
    <trip id="270" depart="270.00" from="68579548#3" to="759192369"/>
    <trip id="271" depart="271.00" from="-23299699#7" to="-11967564#8"/>
    <trip id="272" depart="272.00" from="-68579551#2" to="27917720#4"/>
    <trip id="273" depart="273.00" from="729244957#0" to="-68876131#0"/>
    <trip id="274" depart="274.00" from="4662053#4" to="-230128909"/>
    <trip id="275" depart="275.00" from="366963136#0" to="23914878#1"/>
    <trip id="276" depart="276.00" from="-23247494#4" to="641659902#4"/>
    <trip id="277" depart="277.00" from="68581535#0" to="23299705#5"/>
    <trip id="278" depart="278.00" from="-23589346#17" to="921446881#1"/>
    <trip id="279" depart="279.00" from="683436425#2" to="-68581567"/>
    <trip id="280" depart="280.00" from="-860298903#8" to="-68741754#2"/>
    <trip id="281" depart="281.00" from="1262906170" to="-68581508"/>
    <trip id="282" depart="282.00" from="68581530#1" to="68569173#2"/>
    <trip id="283" depart="283.00" from="-23299698#0" to="733897224"/>
    <trip id="284" depart="284.00" from="27761389#1" to="68569222#8"/>
    <trip id="285" depart="285.00" from="463890077#0" to="-72860649#3"/>
    <trip id="287" depart="287.00" from="-68083824#4" to="68360004#1"/>
    <trip id="288" depart="288.00" from="182926053#30" to="1058344626#1"/>
    <trip id="289" depart="289.00" from="-923832520#1" to="461119575#0"/>
    <trip id="290" depart="290.00" from="-68083823#1" to="68580625#2"/>
    <trip id="291" depart="291.00" from="68580006#0" to="-230845565"/>
    <trip id="292" depart="292.00" from="68741758" to="-616801488#0"/>
    <trip id="293" depart="293.00" from="1058647170" to="23589346#16"/>
    <trip id="294" depart="294.00" from="-68876122#1" to="-11967573#3"/>
    <trip id="295" depart="295.00" from="68581544#1" to="-27917720#13"/>
    <trip id="296" depart="296.00" from="-364338945#3" to="68085001#2"/>
    <trip id="297" depart="297.00" from="-68581597#1" to="68741736#2"/>
    <trip id="298" depart="298.00" from="458113202#1" to="-683436413#5"/>
    <trip id="299" depart="299.00" from="-104361306#1" to="69721139#0"/>
</routes>
