<?xml version="1.0" encoding="UTF-8"?>

<!-- generated on 2025-05-10 10:11:20.122587 by randomTrips.py v1_23_1+0000-676720d13f6
<configuration>
    <net-file value="NewCastle.net.xml"/>
    <output-trip-file value="NewCastle.rou.xml"/>
    <validate value="True"/>
    <end value="300.0"/>
    <period value="1.0"/>
</configuration>
-->

<routes xmlns:xsi="http://www.w3.org/2001/XMLSchema-instance" xsi:noNamespaceSchemaLocation="http://sumo.dlr.de/xsd/routes_file.xsd">
    <trip id="0" depart="0.00" from="27917720#2" to="-11967573#4"/>
    <trip id="1" depart="1.00" from="-68565682#2" to="-506180435#7"/>
    <trip id="2" depart="2.00" from="68756086#1" to="-23238176#7"/>
    <trip id="3" depart="3.00" from="-885671118#4" to="-121679907#13"/>
    <trip id="4" depart="4.00" from="-473658401#1" to="121679911#1"/>
    <trip id="5" depart="5.00" from="-1201267779#1" to="-43794239#5"/>
    <trip id="6" depart="6.00" from="2953812#3" to="168452924#0"/>
    <trip id="7" depart="7.00" from="-5024005#14" to="23299698#1"/>
    <trip id="8" depart="8.00" from="68579129#3" to="-102540369#1"/>
    <trip id="9" depart="9.00" from="68569226#0" to="35823681#1"/>
    <trip id="10" depart="10.00" from="-68741718" to="-27761411#3"/>
    <trip id="11" depart="11.00" from="-23299697#3" to="-23299705#1"/>
    <trip id="12" depart="12.00" from="68581535#0" to="23589346#12"/>
    <trip id="13" depart="13.00" from="68579122#1" to="4662074#2"/>
    <trip id="14" depart="14.00" from="230239892#0" to="860298904#0"/>
    <trip id="15" depart="15.00" from="-68876142#5" to="182926053#16"/>
    <trip id="16" depart="16.00" from="68580618#3" to="23805085#1"/>
    <trip id="17" depart="17.00" from="68741720#1" to="23238113#4"/>
    <trip id="18" depart="18.00" from="4692271#0" to="-1301170619#0"/>
    <trip id="19" depart="19.00" from="-551737194" to="-68569173#3"/>
    <trip id="20" depart="20.00" from="-23238111#3" to="-641659902#3"/>
    <trip id="21" depart="21.00" from="-23485026#1" to="-68565705#4"/>
    <trip id="22" depart="22.00" from="27761422#6" to="-68741754#0"/>
    <trip id="23" depart="23.00" from="-68876117#1" to="-4655478#16"/>
    <trip id="24" depart="24.00" from="-68360003#3" to="69045361"/>
    <trip id="25" depart="25.00" from="28907929#0" to="23589348#11"/>
    <trip id="26" depart="26.00" from="-28446317#1" to="4662074#0"/>
    <trip id="27" depart="27.00" from="-27761422#6" to="-68876083#1"/>
    <trip id="28" depart="28.00" from="926028934#7" to="262609612#1"/>
    <trip id="29" depart="29.00" from="23238176#10" to="31992779#0"/>
    <trip id="30" depart="30.00" from="68580869#3" to="68083812#1"/>
    <trip id="31" depart="31.00" from="-616801488#0" to="-121679907#3"/>
    <trip id="32" depart="32.00" from="-68580625#2" to="-68360005#0"/>
    <trip id="33" depart="33.00" from="-4644976#3" to="694151964#2"/>
    <trip id="34" depart="34.00" from="68741754#1" to="-68579994#0"/>
    <trip id="35" depart="35.00" from="30118572#2" to="-68876136#1"/>
    <trip id="36" depart="36.00" from="68876135#1" to="1003195821#0"/>
    <trip id="37" depart="37.00" from="-683436413#6" to="-68083819#3"/>
    <trip id="38" depart="38.00" from="23299693#2" to="-68085009"/>
    <trip id="39" depart="39.00" from="23589348#0" to="68756039#1"/>
    <trip id="40" depart="40.00" from="-72860643#1" to="-5024005#9"/>
    <trip id="41" depart="41.00" from="988738143" to="121722151#2"/>
    <trip id="42" depart="42.00" from="-23299696#1" to="-1301170620#2"/>
    <trip id="43" depart="43.00" from="-23589346#2" to="24440154#5"/>
    <trip id="44" depart="44.00" from="68569129#1" to="-72860639#1"/>
    <trip id="45" depart="45.00" from="-182926053#8" to="-68876091#0"/>
    <trip id="46" depart="46.00" from="958643361#1" to="1345306791"/>
    <trip id="47" depart="47.00" from="860298903#3" to="68581530#0"/>
    <trip id="48" depart="48.00" from="-1053066061#2" to="463890078#1"/>
    <trip id="49" depart="49.00" from="43794239#2" to="1345336320"/>
    <trip id="50" depart="50.00" from="-68360003#2" to="262609615#3"/>
    <trip id="51" depart="51.00" from="-23589346#7" to="-823361292#4"/>
    <trip id="52" depart="52.00" from="1123915947#1" to="734758110#0"/>
    <trip id="53" depart="53.00" from="68741753#0" to="-683436413#0"/>
    <trip id="54" depart="54.00" from="1308285354" to="-31263827#5"/>
    <trip id="55" depart="55.00" from="68876131#2" to="68581622#1"/>
    <trip id="56" depart="56.00" from="-68579540#2" to="2570430#0"/>
    <trip id="57" depart="57.00" from="2535152#1" to="-27761399#2"/>
    <trip id="58" depart="58.00" from="68085002#0" to="137355167#2"/>
    <trip id="59" depart="59.00" from="68563538#2" to="1345306797#0"/>
    <trip id="60" depart="60.00" from="-1003195821#2" to="-68580629#1"/>
    <trip id="61" depart="61.00" from="-11967564#14" to="68876165#1"/>
    <trip id="62" depart="62.00" from="68741757#0" to="68579542#1"/>
    <trip id="63" depart="63.00" from="-68579992#0" to="-182926053#23"/>
    <trip id="64" depart="64.00" from="68741756#2" to="72860646#0"/>
    <trip id="65" depart="65.00" from="-23238116#5" to="11967564#9"/>
    <trip id="66" depart="66.00" from="-230240437" to="650010533#0"/>
    <trip id="67" depart="67.00" from="68085006#6" to="-23955079#0"/>
    <trip id="68" depart="68.00" from="121679883#4" to="182926049#5"/>
    <trip id="69" depart="69.00" from="-683436413#7" to="68741716#1"/>
    <trip id="70" depart="70.00" from="-888914032#1" to="-4655478#8"/>
    <trip id="71" depart="71.00" from="230838772#1" to="4662075#0"/>
    <trip id="72" depart="72.00" from="-43794239#6" to="-68579984#2"/>
    <trip id="73" depart="73.00" from="953787091" to="27761391#1"/>
    <trip id="74" depart="74.00" from="1003195823#7" to="12475246#5"/>
    <trip id="75" depart="75.00" from="-23805079" to="-551737192#0"/>
    <trip id="76" depart="76.00" from="-68581632#0" to="23299697#2"/>
    <trip id="77" depart="77.00" from="-616801488#12" to="-5024047#3"/>
    <trip id="78" depart="78.00" from="-230843456" to="24525435#3"/>
    <trip id="79" depart="79.00" from="-616801488#0" to="68756192#2"/>
    <trip id="80" depart="80.00" from="68588225#1" to="-230845566"/>
    <trip id="81" depart="81.00" from="-658966235#1" to="28446314#1"/>
    <trip id="82" depart="82.00" from="-4655478#2" to="-24440158#2"/>
    <trip id="83" depart="83.00" from="69045358" to="23238107#3"/>
    <trip id="84" depart="84.00" from="121675934#3" to="68084994"/>
    <trip id="85" depart="85.00" from="68579122#3" to="-35823681#3"/>
    <trip id="86" depart="86.00" from="-23299703#2" to="-758326822"/>
    <trip id="87" depart="87.00" from="-912645248#0" to="1035378551"/>
    <trip id="88" depart="88.00" from="629018360#0" to="28907928#3"/>
    <trip id="89" depart="89.00" from="-72860649#5" to="-68581544#1"/>
    <trip id="90" depart="90.00" from="68741720#1" to="-68083823#2"/>
    <trip id="91" depart="91.00" from="-35823680#1" to="-92134799#1"/>
    <trip id="92" depart="92.00" from="-885671118#4" to="-68565705#6"/>
    <trip id="93" depart="93.00" from="-68083822#1" to="68876142#1"/>
    <trip id="94" depart="94.00" from="104361306#1" to="68581532#1"/>
    <trip id="95" depart="95.00" from="996141195#0" to="68579551#10"/>
    <trip id="96" depart="96.00" from="860298903#14" to="68876154#1"/>
    <trip id="97" depart="97.00" from="68581548" to="-27917720#9"/>
    <trip id="98" depart="98.00" from="-72860647#1" to="-182926053#26"/>
    <trip id="99" depart="99.00" from="-68876147#2" to="921453999"/>
    <trip id="100" depart="100.00" from="-683436413#7" to="68084992#0"/>
    <trip id="101" depart="101.00" from="114882696#0" to="-72860640#1"/>
    <trip id="102" depart="102.00" from="23238116#3" to="463680853"/>
    <trip id="103" depart="103.00" from="-27761399#1" to="-68569222#9"/>
    <trip id="104" depart="104.00" from="860298903#13" to="23238114#5"/>
    <trip id="105" depart="105.00" from="230845564" to="551737192#0"/>
    <trip id="106" depart="106.00" from="-182926053#16" to="23247494#0"/>
    <trip id="107" depart="107.00" from="1345306787#0" to="68580632#1"/>
    <trip id="108" depart="108.00" from="-23238112#0" to="-35742485#22"/>
    <trip id="109" depart="109.00" from="23805083#4" to="2953812#2"/>
    <trip id="110" depart="110.00" from="-641659902#1" to="-23805074#1"/>
    <trip id="111" depart="111.00" from="68756056#1" to="-68083819#2"/>
    <trip id="112" depart="112.00" from="23805083#2" to="23805085#4"/>
    <trip id="113" depart="113.00" from="-860298904#0" to="23238176#8"/>
    <trip id="114" depart="114.00" from="17242106#1" to="69045349#1"/>
    <trip id="115" depart="115.00" from="-460572399#1" to="460768714#0"/>
    <trip id="116" depart="116.00" from="-665724081#0" to="-68876138#0"/>
    <trip id="117" depart="117.00" from="35823679#2" to="-68579129#1"/>
    <trip id="118" depart="118.00" from="-68580629#0" to="616801488#12"/>
    <trip id="119" depart="119.00" from="-230846290#0" to="-996141195#0"/>
    <trip id="120" depart="120.00" from="-230846290#3" to="-47290415#2"/>
    <trip id="121" depart="121.00" from="-683436413#7" to="69042223#2"/>
    <trip id="122" depart="122.00" from="68741773#0" to="68741740#2"/>
    <trip id="123" depart="123.00" from="-68876115#7" to="-27761419#3"/>
    <trip id="124" depart="124.00" from="68580629#4" to="366963136#1"/>
    <trip id="125" depart="125.00" from="2542479#8" to="923840881#0"/>
    <trip id="126" depart="126.00" from="30118273#0" to="-1026438673#1"/>
    <trip id="127" depart="127.00" from="68579551#1" to="-68579123#1"/>
    <trip id="128" depart="128.00" from="31992865#8" to="69071681#1"/>
    <trip id="129" depart="129.00" from="-24525434#3" to="-23589351"/>
    <trip id="130" depart="130.00" from="-23589346#1" to="182926053#2"/>
    <trip id="131" depart="131.00" from="-68565678#0" to="23589346#17"/>
    <trip id="132" depart="132.00" from="506180435#1" to="-460756026"/>
    <trip id="133" depart="133.00" from="27761422#11" to="-683436413#3"/>
    <trip id="134" depart="134.00" from="12475243#10" to="68756192#1"/>
    <trip id="135" depart="135.00" from="68581525" to="-23299698#0"/>
    <trip id="136" depart="136.00" from="-912645248#0" to="-68565704#0"/>
    <trip id="137" depart="137.00" from="-1003195824" to="665724081#8"/>
    <trip id="138" depart="138.00" from="27917717#1" to="-68085008#3"/>
    <trip id="139" depart="139.00" from="664184204#1" to="182926053#14"/>
    <trip id="140" depart="140.00" from="-923840881#1" to="-104361306#6"/>
    <trip id="141" depart="141.00" from="-23238107#2" to="68741747#1"/>
    <trip id="142" depart="142.00" from="68876094" to="168452928#1"/>
    <trip id="143" depart="143.00" from="68580630#2" to="23238176#3"/>
    <trip id="144" depart="144.00" from="-27761384#1" to="-23914888"/>
    <trip id="145" depart="145.00" from="-68579992#3" to="68756074#0"/>
    <trip id="146" depart="146.00" from="68569161" to="68581530#0"/>
    <trip id="147" depart="147.00" from="68876073" to="-4655478#19"/>
    <trip id="148" depart="148.00" from="-68083822#0" to="-23485029#0"/>
    <trip id="149" depart="149.00" from="68565677#3" to="68741750#1"/>
    <trip id="150" depart="150.00" from="-754027111#1" to="23805086#2"/>
    <trip id="151" depart="151.00" from="-27761399#0" to="69042218#1"/>
    <trip id="152" depart="152.00" from="68741730" to="885671118#6"/>
    <trip id="153" depart="153.00" from="68579536" to="68741744#3"/>
    <trip id="154" depart="154.00" from="-11967573#4" to="5016042#3"/>
    <trip id="155" depart="155.00" from="-68581588#0" to="69042221#0"/>
    <trip id="156" depart="156.00" from="68569222#0" to="68581581#0"/>
    <trip id="157" depart="157.00" from="68579536" to="-68360003#3"/>
    <trip id="158" depart="158.00" from="68565705#5" to="-23589346#14"/>
    <trip id="159" depart="159.00" from="68741744#4" to="68580870#1"/>
    <trip id="160" depart="160.00" from="-5024005#9" to="68569157#1"/>
    <trip id="161" depart="161.00" from="11967564#3" to="-68579544#1"/>
    <trip id="162" depart="162.00" from="68569157#0" to="-616801488#14"/>
    <trip id="163" depart="163.00" from="-11967573#0" to="-364338944"/>
    <trip id="164" depart="164.00" from="-68581532#0" to="68581581#1"/>
    <trip id="165" depart="165.00" from="858813354#0" to="-68565936#0"/>
    <trip id="166" depart="166.00" from="27917722#0" to="-68876147#3"/>
    <trip id="167" depart="167.00" from="69071681#1" to="-23589350"/>
    <trip id="168" depart="168.00" from="860298903#2" to="-31263827#5"/>
    <trip id="169" depart="169.00" from="823361292#11" to="-683436413#9"/>
    <trip id="170" depart="170.00" from="-23589346#15" to="-823361292#3"/>
    <trip id="171" depart="171.00" from="62316911#2" to="-68579992#2"/>
    <trip id="172" depart="172.00" from="24525435#1" to="12475242#2"/>
    <trip id="173" depart="173.00" from="-69042221#1" to="23238113#0"/>
    <trip id="174" depart="174.00" from="-68084995#2" to="458113201#1"/>
    <trip id="175" depart="175.00" from="-1003195823#1" to="68876152#1"/>
    <trip id="176" depart="176.00" from="230240436#2" to="463874557"/>
    <trip id="177" depart="177.00" from="665724081#10" to="28446421#1"/>
    <trip id="178" depart="178.00" from="-68876085#0" to="-230843456"/>
    <trip id="179" depart="179.00" from="35742375#0" to="-68580650#0"/>
    <trip id="180" depart="180.00" from="-68580618#3" to="68580624#2"/>
    <trip id="181" depart="181.00" from="-68579994#1" to="-69042220#0"/>
    <trip id="182" depart="182.00" from="-72860649#4" to="-68569222#5"/>
    <trip id="183" depart="183.00" from="-23914887#0" to="-694151963#0"/>
    <trip id="184" depart="184.00" from="694151962#0" to="30099413"/>
    <trip id="185" depart="185.00" from="68876089#1" to="23805074#1"/>
    <trip id="186" depart="186.00" from="-68579548#0" to="17242106#1"/>
    <trip id="187" depart="187.00" from="-1003195821#1" to="-68569159#1"/>
    <trip id="188" depart="188.00" from="-926028934#6" to="23238116#1"/>
    <trip id="189" depart="189.00" from="30118273#3" to="102540369#1"/>
    <trip id="190" depart="190.00" from="1026438673#0" to="-47290415#4"/>
    <trip id="191" depart="191.00" from="121675934#5" to="68756086#2"/>
    <trip id="192" depart="192.00" from="68569159#1" to="-28446421#3"/>
    <trip id="193" depart="193.00" from="-23238116#2" to="12475243#8"/>
    <trip id="194" depart="194.00" from="27761421#2" to="-68580871#1"/>
    <trip id="195" depart="195.00" from="68579551#4" to="616801488#1"/>
    <trip id="196" depart="196.00" from="35823680#3" to="-551737192#0"/>
    <trip id="197" depart="197.00" from="-383833008#2" to="-11967573#2"/>
    <trip id="198" depart="198.00" from="68581565#1" to="-230846290#5"/>
    <trip id="199" depart="199.00" from="-860298903#1" to="24525434#2"/>
    <trip id="200" depart="200.00" from="-364338945#0" to="35823679#1"/>
    <trip id="201" depart="201.00" from="1262900079" to="-68083814#1"/>
    <trip id="202" depart="202.00" from="30118572#5" to="-102540368#0"/>
    <trip id="203" depart="203.00" from="68083816" to="665724081#4"/>
    <trip id="204" depart="204.00" from="-23589345#7" to="-72860646#1"/>
    <trip id="205" depart="205.00" from="-30118272#2" to="754029738"/>
    <trip id="206" depart="206.00" from="-68083819#4" to="68580625#2"/>
    <trip id="207" depart="207.00" from="1176249920#2" to="68360005#1"/>
    <trip id="208" depart="208.00" from="35742485#16" to="926028933"/>
    <trip id="209" depart="209.00" from="23805085#0" to="729244957#1"/>
    <trip id="210" depart="210.00" from="68580624#1" to="17242106#0"/>
    <trip id="211" depart="211.00" from="68876071#0" to="505407463"/>
    <trip id="212" depart="212.00" from="121679883#1" to="-68085006#4"/>
    <trip id="213" depart="213.00" from="-68083817#0" to="2543189"/>
    <trip id="214" depart="214.00" from="68085006#6" to="1279995496#3"/>
    <trip id="215" depart="215.00" from="27761397" to="-68565690#0"/>
    <trip id="216" depart="216.00" from="-23238108#1" to="-68569148#5"/>
    <trip id="217" depart="217.00" from="-68565677#3" to="-68580618#0"/>
    <trip id="218" depart="218.00" from="230841249#1" to="-2542479#7"/>
    <trip id="219" depart="219.00" from="-616801488#4" to="35742485#21"/>
    <trip id="220" depart="220.00" from="47290415#4" to="-230239890#0"/>
    <trip id="221" depart="221.00" from="-759192374" to="13859438#3"/>
    <trip id="222" depart="222.00" from="-860298903#15" to="-4644976#1"/>
    <trip id="223" depart="223.00" from="-863098163#2" to="68756144"/>
    <trip id="224" depart="224.00" from="23589346#9" to="35742485#7"/>
    <trip id="225" depart="225.00" from="68581612#0" to="658966233#5"/>
    <trip id="226" depart="226.00" from="-68876154#0" to="-102540368#1"/>
    <trip id="227" depart="227.00" from="-68741756#1" to="616801488#6"/>
    <trip id="228" depart="228.00" from="68581600#1" to="733897223#3"/>
    <trip id="229" depart="229.00" from="-860298903#9" to="551737191#2"/>
    <trip id="230" depart="230.00" from="23238107#2" to="23589346#10"/>
    <trip id="231" depart="231.00" from="-5024005#2" to="-5024047#0"/>
    <trip id="232" depart="232.00" from="1003195822#1" to="-121679907#10"/>
    <trip id="233" depart="233.00" from="-68581612#1" to="30118272#5"/>
    <trip id="234" depart="234.00" from="-734758110#1" to="-27917720#4"/>
    <trip id="235" depart="235.00" from="1201267779#0" to="-23914888"/>
    <trip id="236" depart="236.00" from="27761384#6" to="-1201267779#0"/>
    <trip id="237" depart="237.00" from="-121679883#1" to="262609623#4"/>
    <trip id="238" depart="238.00" from="-24525435#4" to="1003195823#5"/>
    <trip id="239" depart="239.00" from="-137355167#0" to="-68876083#0"/>
    <trip id="240" depart="240.00" from="-4655478#10" to="-68580631#2"/>
    <trip id="241" depart="241.00" from="68084999#0" to="-68876083#0"/>
    <trip id="242" depart="242.00" from="68083819#0" to="68579542#2"/>
    <trip id="243" depart="243.00" from="-68083824#1" to="-23238114#3"/>
    <trip id="244" depart="244.00" from="-11967564#14" to="137355167#2"/>
    <trip id="245" depart="245.00" from="996141195#2" to="-68588210"/>
    <trip id="246" depart="246.00" from="2953812#4" to="68083823#0"/>
    <trip id="247" depart="247.00" from="30099411#1" to="616801488#9"/>
    <trip id="248" depart="248.00" from="72860649#3" to="-43794239#7"/>
    <trip id="249" depart="249.00" from="-11967564#3" to="-27761399#0"/>
    <trip id="250" depart="250.00" from="-23914882#0" to="28446316#1"/>
    <trip id="251" depart="251.00" from="23299697#3" to="-5024005#3"/>
    <trip id="252" depart="252.00" from="4662053#0" to="658966234#4"/>
    <trip id="253" depart="253.00" from="-27917720#5" to="23589346#6"/>
    <trip id="254" depart="254.00" from="68083810#0" to="-23589348#7"/>
    <trip id="255" depart="255.00" from="68579551#8" to="837679153"/>
    <trip id="256" depart="256.00" from="-23589346#14" to="-11967574#0"/>
    <trip id="257" depart="257.00" from="-68580000#5" to="30099413"/>
    <trip id="258" depart="258.00" from="758326822" to="-68876140#0"/>
    <trip id="259" depart="259.00" from="5024047#2" to="-23238107#9"/>
    <trip id="260" depart="260.00" from="-23485026#5" to="678286765#1"/>
    <trip id="261" depart="261.00" from="68581567" to="23485033#3"/>
    <trip id="262" depart="262.00" from="68565682#0" to="-68581607#0"/>
    <trip id="263" depart="263.00" from="-926028934#0" to="-68741781#0"/>
    <trip id="264" depart="264.00" from="1345306797#2" to="-68581565#3"/>
    <trip id="265" depart="265.00" from="68581565#1" to="68569222#10"/>
    <trip id="266" depart="266.00" from="27761422#6" to="68579129#1"/>
    <trip id="267" depart="267.00" from="47290415#8" to="-823361292#7"/>
    <trip id="268" depart="268.00" from="650010533#1" to="837679156#0"/>
    <trip id="269" depart="269.00" from="-68563538#1" to="68565687"/>
    <trip id="270" depart="270.00" from="230240436#1" to="11967564#14"/>
    <trip id="271" depart="271.00" from="1003195822#0" to="4692270#2"/>
    <trip id="272" depart="272.00" from="-68360005#0" to="68580631#1"/>
    <trip id="273" depart="273.00" from="68580624#1" to="-23238176#6"/>
    <trip id="274" depart="274.00" from="68741777#1" to="-68083814#0"/>
    <trip id="275" depart="275.00" from="11967573#1" to="23589348#6"/>
    <trip id="276" depart="276.00" from="-68876147#2" to="-121679907#1"/>
    <trip id="277" depart="277.00" from="68581571" to="-35742384#1"/>
    <trip id="278" depart="278.00" from="-4655478#12" to="683436425#1"/>
    <trip id="279" depart="279.00" from="-68741718" to="68741741#1"/>
    <trip id="280" depart="280.00" from="4662053#7" to="-68565693#1"/>
    <trip id="281" depart="281.00" from="-104361306#7" to="72860647#2"/>
    <trip id="282" depart="282.00" from="-23238116#5" to="463890077#0"/>
    <trip id="283" depart="283.00" from="12475243#10" to="641651028#0"/>
    <trip id="284" depart="284.00" from="12475243#6" to="68085008#5"/>
    <trip id="285" depart="285.00" from="-23299697#4" to="-506180435#1"/>
    <trip id="286" depart="286.00" from="463680864#0" to="-68579548#0"/>
    <trip id="287" depart="287.00" from="23589346#19" to="1058344627#4"/>
    <trip id="288" depart="288.00" from="182926053#30" to="-72860647#0"/>
    <trip id="289" depart="289.00" from="678286765#4" to="-68580793#1"/>
    <trip id="290" depart="290.00" from="4662075#1" to="-68565677#2"/>
    <trip id="291" depart="291.00" from="-68083823#2" to="-23805077"/>
    <trip id="292" depart="292.00" from="-35823683#1" to="-23805074#0"/>
    <trip id="293" depart="293.00" from="230239891#0" to="650010535#2"/>
    <trip id="294" depart="294.00" from="-35742485#14" to="-5024005#10"/>
    <trip id="295" depart="295.00" from="121679913#4" to="4655478#19"/>
    <trip id="296" depart="296.00" from="888914032#0" to="1301170620#5"/>
    <trip id="297" depart="297.00" from="-68569148#3" to="-23485026#1"/>
    <trip id="298" depart="298.00" from="-364338944" to="-616801488#14"/>
    <trip id="299" depart="299.00" from="-31263827#1" to="-1123915944#0"/>
</routes>
