<?xml version="1.0" encoding="UTF-8"?>

<!-- generated on 2025-05-10 10:11:23.217413 by randomTrips.py v1_23_1+0000-676720d13f6
<configuration>
    <net-file value="NewCastle.net.xml"/>
    <output-trip-file value="NewCastle.rou.xml"/>
    <validate value="True"/>
    <end value="300.0"/>
    <period value="1.0"/>
</configuration>
-->

<!-- generated on 2025-05-10 10:11:22 by Eclipse SUMO duarouter Version 1.23.1
<duarouterConfiguration xmlns:xsi="http://www.w3.org/2001/XMLSchema-instance" xsi:noNamespaceSchemaLocation="http://sumo.dlr.de/xsd/duarouterConfiguration.xsd">

    <input>
        <net-file value="NewCastle.net.xml"/>
        <route-files value="NewCastle.rou.xml"/>
    </input>

    <output>
        <output-file value="routes.rou.xml"/>
        <alternatives-output value="NUL"/>
    </output>

    <time>
        <begin value="0.0"/>
        <end value="300.0"/>
    </time>

    <report>
        <no-warnings value="true"/>
        <ignore-errors value="true"/>
        <no-step-log value="true"/>
    </report>

</duarouterConfiguration>
-->

<routes xmlns:xsi="http://www.w3.org/2001/XMLSchema-instance" xsi:noNamespaceSchemaLocation="http://sumo.dlr.de/xsd/routes_file.xsd">
    <vehicle id="0" depart="0.00">
        <route edges="27917720#2 27917720#3 27917720#4 27917720#5 27917720#6 27917720#7 27917720#8 27917720#9 27917720#10 27917720#11 35823679#2 182926053#30 182926053#31 182926053#32 182926053#33 182926053#34 182926053#35 926028934#0 926028934#1 926028934#2 926028934#3 926028934#4 926028934#5 926028934#6 926028934#7 1003195825#0 1003195825#1 1003195825#2 1003195825#3 1003195825#4 1003195825#5 926028933 1003195824 4655478#0 4655478#1 4655478#2 4655478#3 4655478#4 4655478#5 4655478#6 4655478#7 4655478#8 4655478#9 4655478#10 4655478#11 4655478#12 4655478#13 -230846290#5 -230846290#4 -230846290#3 -230846290#2 -230846290#1 -230846290#0 -11967573#6 -11967573#5 -11967573#4"/>
    </vehicle>
    <vehicle id="1" depart="1.00">
        <route edges="-68565682#2 -68565682#1 -68565682#0 -68565677#1 -68565677#0 23299697#2 23299697#3 23299697#4 -1003195823#4 -1003195823#3 -1003195823#2 -1003195823#1 -1003195823#0 -859353074 -1003195822#2 -1003195822#1 -1003195822#0 -121679913#4 -121679913#3 -121679913#2 -121679913#1 -121679913#0 -946126772 -946126773#1 -946126773#0 -121679911#8 -121679911#7 -121679911#6 -121679911#5 -121679911#4 -121679911#3 -121679911#2 -121679911#1 -121679911#0 -641659902#6 -641659902#5 -641659902#4 -641659902#3 -641659902#2 -641659902#1 -641659902#0 -1003195821#2 -1003195821#1 -1003195821#0 -121679883#5 -121679883#4 -121679883#3 -121679883#2 -121679883#1 -121679883#0 -104361306#9 -104361306#8 -104361306#7 -104361306#6 -104361306#5 -104361306#4 -104361306#3 -104361306#2 -104361306#1 -104361306#0 506180435#0 506180435#1 506180435#2 506180435#3 506180435#4 506180435#5 506180435#6 506180435#7 759192369 -759192369 -506180435#7"/>
    </vehicle>
    <vehicle id="2" depart="2.00">
        <route edges="68756086#1 68756086#2 68756086#3 2543189 658966229 658966227 68756091#0 68756091#1 68756091#2 -2535152#3 -2535152#2 -2535152#1 -2535152#0 2542575#0 2542575#1 -11967574#2 -11967574#1 -11967574#0 -121679907#21 -68085007#1 -68085007#0 -68085006#12 -68085006#11 -68085006#10 -68085006#9 -68085006#8 -68085006#7 -68085006#6 -68085006#5 -68085006#4 -68085006#3 -68085006#2 23238176#7 -23238176#7"/>
    </vehicle>
    <vehicle id="3" depart="3.00">
        <route edges="-885671118#4 885671118#4 885671118#5 885671118#6 885671118#7 28907928#0 28907928#1 28907928#2 28907928#3 888914032#0 888914032#1 262609617 -28907929#1 -28907929#0 1262900082 1262900079 683436428#0 683436428#1 -678286765#7 -678286765#6 -678286765#5 -678286765#4 -678286765#3 -678286765#2 -678286765#1 -678286765#0 -11967573#6 -11967573#5 -11967573#4 -11967573#3 -11967573#2 -11967573#1 -11967573#0 -121679907#21 -121679907#20 -121679907#19 -121679907#18 -121679907#17 -121679907#16 -121679907#15 -121679907#14 -121679907#13"/>
    </vehicle>
    <vehicle id="4" depart="4.00">
        <route edges="-473658401#1 30118572#0 30118572#1 30118572#2 30118572#3 30118572#4 30118572#5 30118572#6 891473196 2542575#1 -11967574#2 -11967574#1 -11967574#0 -121679907#21 -121679907#20 -121679907#19 -121679907#18 -121679907#17 -121679907#16 -121679907#15 -121679907#14 -121679907#13 -121679907#12 -121679907#11 -121679907#10 -121679907#9 -121679907#8 -121679907#7 -121679907#6 -121679907#5 -121679907#4 -121679907#3 -121679907#2 -68565677#5 -68565677#4 -68565677#3 -68565677#2 -68565677#1 -68565677#0 23299697#2 23299697#3 23299697#4 -1003195823#4 -1003195823#3 -1003195823#2 -1003195823#1 -1003195823#0 -859353074 -1003195822#2 -1003195822#1 -1003195822#0 -121679913#4 -121679913#3 -121679913#2 -121679913#1 -121679913#0 -946126772 -946126773#1 -946126773#0 -121679911#8 -121679911#7 -121679911#6 -121679911#5 -121679911#4 -121679911#3 -121679911#2 -121679911#1 -121679911#0 121679911#0 121679911#1"/>
    </vehicle>
    <vehicle id="5" depart="5.00">
        <route edges="-1201267779#1 -1123915947#3 -1123915947#2 -1123915947#1 -1123915947#0 -1061780236 -12475246#9 -12475246#8 -691360491#2 -691360491#1 -691360491#0 458113201#0 458113201#1 458113201#2 458113201#3 35742485#16 35742485#17 35742485#18 35742485#19 68580629#0 68580629#1 68580629#2 68580629#3 68580629#4 641659902#2 641659902#3 641659902#4 641659902#5 641659902#6 12475243#0 12475243#1 12475243#2 12475243#3 12475243#4 12475243#5 12475243#6 12475243#7 12475243#8 43794239#0 43794239#1 43794239#2 43794239#3 43794239#4 43794239#5 -43794239#5"/>
    </vehicle>
    <vehicle id="6" depart="6.00">
        <route edges="2953812#3 2953812#4 31992865#0 31992865#1 31992865#2 31992865#3 31992865#4 31992865#5 31992865#6 31992865#7 31992865#8 31992865#9 31992865#10 31992865#11 31992865#12 121675934#0 121675934#1 121675934#2 121675934#3 11967566#1 11967566#2 168452924#0"/>
    </vehicle>
    <vehicle id="7" depart="7.00">
        <route edges="-5024005#14 -5024005#13 -5024005#12 5024005#12 5024005#13 5024005#14 121679883#0 121679883#1 121679883#2 121679883#3 121679883#4 121679883#5 1003195821#0 1003195821#1 1003195821#2 641659902#0 641659902#1 641659902#2 641659902#3 641659902#4 641659902#5 641659902#6 12475243#0 12475243#1 12475243#2 12475243#3 12475243#4 12475243#5 12475243#6 12475243#7 12475243#8 12475243#9 12475243#10 12475243#11 12475243#12 12475243#13 12475243#14 182926053#16 182926053#17 182926053#18 182926053#19 182926053#20 182926053#21 182926053#22 182926053#23 182926053#24 182926053#25 182926053#26 182926053#27 182926053#28 182926053#29 182926053#30 182926053#31 182926053#32 182926053#33 182926053#34 182926053#35 926028934#0 926028934#1 926028934#2 926028934#3 926028934#4 926028934#5 926028934#6 926028934#7 1003195825#0 1003195825#1 1003195825#2 1003195825#3 1003195825#4 1003195825#5 926028933 1003195824 4655478#0 4655478#1 4655478#2 4655478#3 4655478#4 4655478#5 4655478#6 4655478#7 4655478#8 4655478#9 4655478#10 4655478#11 4655478#12 844049948#0 23299698#0 23299698#1"/>
    </vehicle>
    <vehicle id="8" depart="8.00">
        <route edges="68579129#3 -68579129#3 -68579129#2 -68579129#1 -68579129#0 694151962#1 694151962#2 694151962#3 694151962#4 694151962#5 694151962#6 102540369#0 102540369#1 121722151#0 121722151#1 121722151#2 921453997#2 921453998#0 921453998#1 921453994 2953747#0 2953747#1 921453993 921453996#0 921453996#1 921453999 121722150#0 121722150#1 -102540369#1"/>
    </vehicle>
    <vehicle id="9" depart="9.00">
        <route edges="68569226#0 68569226#1 68569226#2 68569226#3 35742485#21 35742485#22 364338945#0 364338945#1 364338945#2 364338945#3 364338945#4 364338945#5 364338945#6 364338945#7 12475243#0 12475243#1 12475243#2 12475243#3 12475243#4 12475243#5 12475243#6 12475243#7 12475243#8 12475243#9 27917720#0 27917720#1 27917720#2 27917720#3 27917720#4 27917720#5 27917720#6 27917720#7 35823681#1"/>
    </vehicle>
    <vehicle id="10" depart="10.00">
        <route edges="-68741718 68741716#3 -2535152#1 -2535152#0 2542575#0 2542575#1 -11967574#2 -11967574#1 -11967574#0 11967573#0 11967573#1 11967573#2 11967573#3 11967573#4 11967573#5 11967573#6 230846290#0 230846290#1 230846290#2 230846290#3 230846290#4 230846290#5 -4655478#13 -4655478#12 -4655478#11 -4655478#10 -4655478#9 -4655478#8 -4655478#7 -4655478#6 -4655478#5 -4655478#4 -4655478#3 -4655478#2 -4655478#1 -4655478#0 -1003195824 -926028933 -1003195825#5 -1003195825#4 -1003195825#3 -23238107#12 -23238107#11 -23238107#10 27761384#0 27761384#1 27761384#2 27761384#3 27761384#4 27761384#5 27761384#6 27761384#7 27761384#8 -27761399#4 -27761411#6 -27761411#5 -27761411#4 -27761411#3"/>
    </vehicle>
    <vehicle id="11" depart="11.00">
        <route edges="-23299697#3 23299697#3 23299697#4 -1003195823#4 -1003195823#3 -1003195823#2 -1003195823#1 23238107#0 23238107#1 23238107#2 23238107#3 23238107#4 23238107#5 23238107#6 23238107#7 23238107#8 23238107#9 23238107#10 23238107#11 23238107#12 1003195825#3 1003195825#4 1003195825#5 926028933 1003195824 23238116#0 23238116#1 23238116#2 23238116#3 23238116#4 23238116#5 31992779#0 31992779#1 2542479#0 2542479#1 2542479#2 2542479#3 23805086#4 23805086#5 -23299705#5 -23299705#4 -23299705#3 -23299705#2 -23299705#1"/>
    </vehicle>
    <vehicle id="12" depart="12.00">
        <route edges="68581535#0 68580869#4 68581632#1 68581612#0 68581612#1 68581612#2 262609623#10 5024005#7 5024005#8 5024005#9 5024005#10 5024005#11 5024005#12 5024005#13 5024005#14 121679883#0 121679883#1 121679883#2 121679883#3 121679883#4 121679883#5 1003195821#0 1003195821#1 1003195821#2 641659902#0 641659902#1 641659902#2 641659902#3 641659902#4 641659902#5 641659902#6 12475243#0 12475243#1 12475243#2 12475243#3 12475243#4 12475243#5 12475243#6 12475243#7 12475243#8 12475243#9 12475243#10 12475243#11 12475243#12 12475243#13 12475243#14 182926053#16 182926053#17 182926053#18 182926053#19 182926053#20 182926053#21 182926053#22 182926053#23 182926053#24 182926053#25 182926053#26 182926053#27 182926053#28 182926053#29 182926053#30 182926053#31 182926053#32 182926053#33 182926053#34 182926053#35 926028934#0 926028934#1 926028934#2 926028934#3 926028934#4 926028934#5 926028934#6 926028934#7 12475242#0 12475242#1 12475242#2 -23589346#19 -23589346#18 -23589346#17 -23589346#16 -23589346#15 -23589346#14 -23589346#13 -23589346#12 23589346#12"/>
    </vehicle>
    <vehicle id="13" depart="13.00">
        <route edges="68579122#1 68579122#2 -68579545 -121679883#2 -121679883#1 -121679883#0 -5024005#14 -5024005#13 -5024005#12 -5024005#11 -5024005#10 -5024005#9 -5024005#8 -5024005#7 -5024005#6 -68579551#11 -68579551#10 -68579551#9 -68579551#8 -68579551#7 -68579551#6 -68579551#5 -68579551#4 -68579551#3 -68579551#2 -68579551#1 -68579551#0 102540368#1 694151962#0 694151962#1 694151962#2 694151962#3 694151962#4 694151962#5 694151962#6 102540369#0 102540369#1 121722151#0 121722151#1 121722151#2 921453997#2 4662074#0 4662074#1 4662074#2"/>
    </vehicle>
    <vehicle id="14" depart="14.00">
        <route edges="230239892#0 230239892#1 230239892#2 -121679911#6 -121679911#5 -121679911#4 -121679911#3 -121679911#2 -121679911#1 -121679911#0 -364338945#7 -364338945#6 -364338945#5 -364338945#4 -364338945#3 -364338945#2 -364338945#1 -364338945#0 -694151964#3 -694151964#2 -694151964#1 -694151964#0 -12475244 860298904#0"/>
    </vehicle>
    <vehicle id="15" depart="15.00">
        <route edges="-68876142#5 -68876142#4 -68876142#3 -68876142#2 -68876142#1 -68876142#0 68876135#0 68876135#1 68876135#2 68876135#3 68876135#4 68876135#5 68876135#6 68876135#7 68876135#8 68876135#9 68876135#10 -23805085#6 -23805085#5 -23805085#4 -23805085#3 -23805085#2 -23805085#1 -23805085#0 23805083#3 23805083#4 23805084 -4655478#6 -4655478#5 -4655478#4 -4655478#3 -4655478#2 -4655478#1 -4655478#0 -1003195824 -926028933 -1003195825#5 -1003195825#4 -1003195825#3 -1003195825#2 -1003195825#1 -1003195825#0 -926028934#7 -926028934#6 -926028934#5 -926028934#4 -926028934#3 -926028934#2 -926028934#1 -926028934#0 -182926053#35 -182926053#34 -182926053#33 -182926053#32 -182926053#31 -182926053#30 -182926053#29 -182926053#28 -182926053#27 -182926053#26 -182926053#25 -182926053#24 -182926053#23 -182926053#22 -182926053#21 -182926053#20 -182926053#19 -182926053#18 -182926053#17 -182926053#16 182926053#16"/>
    </vehicle>
    <vehicle id="16" depart="16.00">
        <route edges="68580618#3 68580629#4 641659902#2 641659902#3 641659902#4 641659902#5 641659902#6 12475243#0 12475243#1 12475243#2 12475243#3 12475243#4 12475243#5 12475243#6 12475243#7 12475243#8 12475243#9 12475243#10 12475243#11 12475243#12 12475243#13 12475243#14 182926053#16 182926053#17 182926053#18 182926053#19 182926053#20 182926053#21 182926053#22 182926053#23 182926053#24 182926053#25 182926053#26 182926053#27 182926053#28 182926053#29 182926053#30 182926053#31 182926053#32 182926053#33 182926053#34 182926053#35 926028934#0 926028934#1 926028934#2 926028934#3 926028934#4 926028934#5 926028934#6 926028934#7 1003195825#0 1003195825#1 1003195825#2 1003195825#3 1003195825#4 1003195825#5 926028933 1003195824 4655478#0 4655478#1 4655478#2 4655478#3 4655478#4 4655478#5 4655478#6 -23805084 -23805083#4 -23805083#3 23805085#0 23805085#1"/>
    </vehicle>
    <vehicle id="17" depart="17.00">
        <route edges="68741720#1 68741720#2 68741720#3 68741720#4 68741720#5 68741720#6 68741720#7 68741720#8 68741720#9 -2535152#3 -2535152#2 -2535152#1 -2535152#0 2542575#0 2542575#1 -11967574#2 -11967574#1 -11967574#0 -121679907#21 -121679907#20 -121679907#19 -121679907#18 -121679907#17 -121679907#16 -121679907#15 -121679907#14 -121679907#13 -121679907#12 -121679907#11 -121679907#10 23238113#0 23238113#1 23238113#2 23238113#3 23238113#4"/>
    </vehicle>
    <vehicle id="18" depart="18.00">
        <route edges="4692271#0 4692271#1 733897223#0 733897223#1 650010536 650010534 650010535#0 650010535#1 650010535#2 -461119586 -658966235#1 -658966235#0 -683436413#9 -683436413#8 -683436413#7 -683436413#6 -683436413#5 -683436413#4 -683436413#3 -683436413#2 -683436413#1 -683436413#0 -683436410#1 -683436410#0 683436408#0 683436408#1 1262906172#0 1262906172#1 -4655478#19 -4655478#18 -4655478#17 -4655478#16 -4655478#15 -4655478#14 -4655478#13 -4655478#12 -4655478#11 -4655478#10 1301170619#0 -1301170619#0"/>
    </vehicle>
    <vehicle id="19" depart="19.00">
        <route edges="-551737194 -506180435#5 -506180435#4 -506180435#3 -506180435#2 -506180435#1 -506180435#0 104361306#0 104361306#1 104361306#2 104361306#3 104361306#4 104361306#5 104361306#6 104361306#7 104361306#8 104361306#9 121679883#0 121679883#1 121679883#2 121679883#3 121679883#4 121679883#5 1003195821#0 1003195821#1 1003195821#2 641659902#0 641659902#1 641659902#2 641659902#3 641659902#4 641659902#5 641659902#6 121679911#0 121679911#1 121679911#2 121679911#3 121679911#4 -68580796#2 -68580796#1 -68580796#0 860298903#10 860298903#11 860298903#12 860298903#13 860298903#14 860298903#15 860298903#16 -68569173#7 -68569173#6 -68569173#5 -68569173#4 -68569173#3"/>
    </vehicle>
    <vehicle id="20" depart="20.00">
        <route edges="-23238111#3 -23238111#2 -23238111#1 -23238111#0 23238111#0 23238111#1 23238111#2 23238111#3 -23238112#0 -23238110#2 -23238110#1 -23238110#0 -121679907#5 -121679907#4 -121679907#3 -121679907#2 -68565677#5 -68565677#4 -68565677#3 -68565677#2 -68565677#1 -68565677#0 23299697#2 23299697#3 23299697#4 -1003195823#4 -1003195823#3 -1003195823#2 -1003195823#1 -1003195823#0 -859353074 -1003195822#2 -1003195822#1 -1003195822#0 -121679913#4 -121679913#3 -121679913#2 -121679913#1 -121679913#0 -946126772 -946126773#1 -946126773#0 -121679911#8 -121679911#7 -121679911#6 -121679911#5 -121679911#4 -121679911#3 -121679911#2 -121679911#1 -121679911#0 -641659902#6 -641659902#5 -641659902#4 -641659902#3"/>
    </vehicle>
    <vehicle id="21" depart="21.00">
        <route edges="-23485026#1 -23589348#10 -23589348#9 -12475242#3 -12475242#2 -12475242#1 -12475242#0 1003195825#0 1003195825#1 1003195825#2 -23238107#12 -23238107#11 -23238107#10 -23238107#9 -23238107#8 -23238107#7 -23238107#6 -23238107#5 -23238107#4 -23238107#3 -23238107#2 -23238107#1 -23238107#0 1003195823#1 1003195823#2 1003195823#3 1003195823#4 -23299697#4 -23299697#3 -23299697#2 -23299697#1 -23299697#0 -733607726#2 -68565705#7 -68565705#6 -68565705#5 -68565705#4"/>
    </vehicle>
    <vehicle id="22" depart="22.00">
        <route edges="27761422#6 27917727 1003195823#0 1003195823#1 1003195823#2 1003195823#3 1003195823#4 1003195823#5 1003195823#6 1003195823#7 823361292#0 823361292#1 823361292#2 823361292#3 823361292#4 823361292#5 823361292#6 823361292#7 823361292#8 823361292#9 823361292#10 823361292#11 616801488#0 616801488#1 616801488#2 616801488#3 616801488#4 616801488#5 616801488#6 616801488#7 616801488#8 616801488#9 616801488#10 616801488#11 -68741754#5 -68741754#4 -68741754#3 -68741754#2 -68741754#1 -68741754#0"/>
    </vehicle>
    <vehicle id="23" depart="23.00">
        <route edges="-68876117#1 -68876116 68876116 68876117#1 68876115#5 68876115#6 -68876108#3 -68876108#2 -68876108#1 -68876108#0 262609617 -28907929#1 -28907929#0 1262900082 1262900079 683436408#1 1262906172#0 1262906172#1 -4655478#19 -4655478#18 -4655478#17 -4655478#16"/>
    </vehicle>
    <vehicle id="24" depart="24.00">
        <route edges="-68360003#3 -1099893498 -68360005#2 -68360007#2 -68360007#1 -68360007#0 11967573#2 11967573#3 11967573#4 11967573#5 11967573#6 -616801488#14 -616801488#13 -616801488#12 -616801488#11 -616801488#10 -616801488#9 -616801488#8 -616801488#7 -616801488#6 -616801488#5 -616801488#4 -616801488#3 -616801488#2 -616801488#1 -616801488#0 -823361292#11 -823361292#10 -823361292#9 -823361292#8 -823361292#7 -823361292#6 -823361292#5 -823361292#4 -823361292#3 -823361292#2 -823361292#1 -823361292#0 -1003195823#7 -1003195823#6 -1003195823#5 -1003195823#4 -1003195823#3 -1003195823#2 -1003195823#1 -1003195823#0 -859353074 -1003195822#2 -1003195822#1 -1003195822#0 -121679913#4 -121679913#3 -121679913#2 -121679913#1 -121679913#0 -946126772 -946126773#1 -946126773#0 -121679911#8 -121679911#7 -121679911#6 -121679911#5 -121679911#4 -121679911#3 -121679911#2 -121679911#1 -121679911#0 -641659902#6 -641659902#5 -641659902#4 -641659902#3 -641659902#2 -641659902#1 -641659902#0 -28446421#5 -28446421#4 -28446421#3 69045360#0 69045360#1 69045361"/>
    </vehicle>
    <vehicle id="25" depart="25.00">
        <route edges="28907929#0 28907929#1 -28907929#1 -28907929#0 1262900082 1262900079 683436408#1 1262906172#0 1262906172#1 -4655478#19 -4655478#18 -4655478#17 -4655478#16 -4655478#15 -4655478#14 -4655478#13 -4655478#12 -4655478#11 -4655478#10 -4655478#9 -4655478#8 -4655478#7 -4655478#6 -4655478#5 -4655478#4 -4655478#3 -4655478#2 -4655478#1 -4655478#0 -1003195824 -926028933 -1003195825#5 -1003195825#4 -1003195825#3 -1003195825#2 -1003195825#1 -1003195825#0 12475242#0 12475242#1 12475242#2 12475242#3 23589348#9 23589348#10 23589348#11"/>
    </vehicle>
    <vehicle id="26" depart="26.00">
        <route edges="-28446317#1 -28446317#0 68579542#0 68579542#1 68579542#2 68579542#3 262609615#0 262609615#1 262609615#2 262609615#3 262609623#0 262609623#1 262609623#2 262609623#3 262609623#4 262609623#5 262609623#6 262609623#7 262609623#8 262609623#9 262609623#10 -5024005#6 -68579551#11 -68579551#10 -68579551#9 -68579551#8 -68579551#7 -68579551#6 -68579551#5 -68579551#4 -68579551#3 -68579551#2 -68579551#1 -68579551#0 102540368#1 694151962#0 694151962#1 694151962#2 694151962#3 694151962#4 694151962#5 694151962#6 102540369#0 102540369#1 121722151#0 121722151#1 121722151#2 921453997#2 4662074#0"/>
    </vehicle>
    <vehicle id="27" depart="27.00">
        <route edges="-27761422#6 27761422#6 27761422#7 27761422#8 23238107#2 23238107#3 23238107#4 23238107#5 23238107#6 23238107#7 23238107#8 23238107#9 23238107#10 23238107#11 23238107#12 1003195825#3 1003195825#4 1003195825#5 926028933 1003195824 4655478#0 4655478#1 4655478#2 4655478#3 4655478#4 4655478#5 4655478#6 4655478#7 4655478#8 4655478#9 4655478#10 4655478#11 4655478#12 844049948#0 23299698#0 68876128 68876131#2 68876131#3 -68876135#7 -68876135#6 -68876135#5 -68876135#4 -68876135#3 -68876135#2 -68876083#4 -68876083#3 -68876083#2 -68876083#1"/>
    </vehicle>
    <vehicle id="28" depart="28.00">
        <route edges="926028934#7 -926028934#7 -926028934#6 -926028934#5 -926028934#4 -926028934#3 -926028934#2 -926028934#1 -926028934#0 -182926053#35 -182926053#34 -182926053#33 -182926053#32 -182926053#31 -182926053#30 -182926053#29 -182926053#28 -182926053#27 -182926053#26 -182926053#25 -182926053#24 -182926053#23 -182926053#22 -182926053#21 -182926053#20 -182926053#19 -182926053#18 -182926053#17 -182926053#16 -12475243#14 -12475243#13 -12475243#12 -12475243#11 -12475243#10 -12475243#9 -12475243#8 -12475243#7 -12475243#6 -12475243#5 -12475243#4 -12475243#3 -12475243#2 -12475243#1 -12475243#0 -641659902#6 -641659902#5 -641659902#4 -641659902#3 -641659902#2 -641659902#1 -641659902#0 -28446421#5 -28446421#4 -28446421#3 -28446421#2 -28446421#1 -28446421#0 68579542#0 68579542#1 68579542#2 68579542#3 262609615#0 -230128707#1 -262609611 262609612#1"/>
    </vehicle>
    <vehicle id="29" depart="29.00">
        <route edges="23238176#10 23238176#11 -23238176#11 -23238176#10 -23238176#9 -23238176#8 -23238176#7 68085006#2 68085006#3 68085006#4 68085006#5 68085006#6 68085006#7 68085006#8 68085006#9 68085006#10 68085006#11 68085006#12 68085007#0 68085007#1 121679907#21 11967573#0 11967573#1 11967573#2 11967573#3 11967573#4 11967573#5 11967573#6 230846290#0 230846290#1 230846290#2 230846290#3 230846290#4 230846290#5 -4655478#13 -4655478#12 -4655478#11 -4655478#10 -4655478#9 -4655478#8 -4655478#7 -4655478#6 -4655478#5 -4655478#4 -4655478#3 -4655478#2 -4655478#1 -4655478#0 23238116#0 23238116#1 23238116#2 23238116#3 23238116#4 23238116#5 31992779#0"/>
    </vehicle>
    <vehicle id="30" depart="30.00">
        <route edges="68580869#3 68580869#4 68581632#1 68581612#0 68581612#1 68581612#2 262609623#10 5024005#7 5024005#8 5024005#9 5024005#10 5024005#11 5024005#12 5024005#13 5024005#14 121679883#0 121679883#1 121679883#2 121679883#3 121679883#4 121679883#5 1003195821#0 1003195821#1 1003195821#2 641659902#0 641659902#1 641659902#2 641659902#3 641659902#4 641659902#5 641659902#6 121679911#0 121679911#1 121679911#2 121679911#3 121679911#4 121679911#5 121679911#6 121679911#7 121679911#8 946126773#0 946126773#1 946126772 121679913#0 121679913#1 121679913#2 121679913#3 121679913#4 1003195822#0 1003195822#1 1003195822#2 859353074 1003195823#0 1003195823#1 1003195823#2 1003195823#3 1003195823#4 1003195823#5 1003195823#6 1003195823#7 823361292#0 823361292#1 823361292#2 823361292#3 823361292#4 823361292#5 823361292#6 823361292#7 823361292#8 823361292#9 823361292#10 823361292#11 616801488#0 616801488#1 616801488#2 616801488#3 616801488#4 616801488#5 616801488#6 616801488#7 616801488#8 616801488#9 616801488#10 616801488#11 616801488#12 -68083812#2 -68083812#1 -68083812#0 68083812#0 68083812#1"/>
    </vehicle>
    <vehicle id="31" depart="31.00">
        <route edges="-616801488#0 -823361292#11 -823361292#10 -23238113#5 -23238113#4 -23238113#3 -23238113#2 -23238113#1 -23238113#0 -121679907#9 -121679907#8 -121679907#7 -121679907#6 -121679907#5 -121679907#4 -121679907#3"/>
    </vehicle>
    <vehicle id="32" depart="32.00">
        <route edges="-68580625#2 -68580625#1 -68580625#0 68580625#0 68580625#1 68580625#2 121679911#3 121679911#4 121679911#5 121679911#6 121679911#7 121679911#8 946126773#0 946126773#1 946126772 121679913#0 121679913#1 121679913#2 121679913#3 121679913#4 1003195822#0 1003195822#1 1003195822#2 859353074 1003195823#0 1003195823#1 1003195823#2 1003195823#3 1003195823#4 1003195823#5 1003195823#6 1003195823#7 823361292#0 823361292#1 823361292#2 823361292#3 823361292#4 823361292#5 823361292#6 823361292#7 823361292#8 823361292#9 823361292#10 823361292#11 616801488#0 616801488#1 616801488#2 616801488#3 616801488#4 616801488#5 616801488#6 616801488#7 616801488#8 616801488#9 616801488#10 616801488#11 616801488#12 616801488#13 616801488#14 -11967573#6 -11967573#5 -11967573#4 -11967573#3 -11967573#2 68360007#0 68360007#1 68360007#2 -68360005#1 -68360005#0"/>
    </vehicle>
    <vehicle id="33" depart="33.00">
        <route edges="-4644976#3 -4644976#2 -4644976#1 -4644976#0 -28451309#2 -28451309#1 -28451309#0 28446421#0 28446421#1 28446421#2 28446421#3 28446421#4 28446421#5 641659902#0 641659902#1 641659902#2 641659902#3 641659902#4 641659902#5 641659902#6 -364338945#7 -364338945#6 -364338945#5 -364338945#4 -364338945#3 -364338945#2 -364338945#1 -364338945#0 -694151964#3 -694151964#2 694151964#2"/>
    </vehicle>
    <vehicle id="34" depart="34.00">
        <route edges="68741754#1 68741754#2 68741754#3 68741754#4 68741754#5 -616801488#11 -616801488#10 -616801488#9 -616801488#8 -616801488#7 -616801488#6 -616801488#5 -616801488#4 -616801488#3 -616801488#2 -616801488#1 -616801488#0 -823361292#11 -823361292#10 -823361292#9 -823361292#8 -823361292#7 -823361292#6 -823361292#5 -823361292#4 -823361292#3 -823361292#2 -823361292#1 -823361292#0 -1003195823#7 -1003195823#6 -1003195823#5 -1003195823#4 -1003195823#3 -1003195823#2 -1003195823#1 -1003195823#0 -859353074 -1003195822#2 -1003195822#1 -1003195822#0 -121679913#4 -121679913#3 -121679913#2 -121679913#1 -121679913#0 -946126772 -946126773#1 -946126773#0 -121679911#8 -121679911#7 -121679911#6 -121679911#5 -121679911#4 -121679911#3 -121679911#2 -121679911#1 -121679911#0 -641659902#6 -641659902#5 -641659902#4 -641659902#3 -641659902#2 -641659902#1 -641659902#0 -1003195821#2 -1003195821#1 -1003195821#0 -121679883#5 -121679883#4 -121679883#3 -121679883#2 -121679883#1 -121679883#0 -104361306#9 -104361306#8 -104361306#7 -104361306#6 -104361306#5 -104361306#4 -104361306#3 -104361306#2 -104361306#1 -104361306#0 -35742485#14 -35742485#13 -35742485#12 -68579994#3 -68579994#2 -68579994#1 -68579994#0"/>
    </vehicle>
    <vehicle id="35" depart="35.00">
        <route edges="30118572#2 30118572#3 30118572#4 30118572#5 30118572#6 891473196 2542575#1 -11967574#2 -11967574#1 -11967574#0 11967573#0 11967573#1 11967573#2 11967573#3 11967573#4 11967573#5 11967573#6 230846290#0 230846290#1 230846290#2 230846290#3 230846290#4 230846290#5 -4655478#13 844049948#0 23299698#0 68876128 68876131#2 68876131#3 -68876135#7 -68876135#6 -68876135#5 -68876135#4 -68876135#3 -68876136#1"/>
    </vehicle>
    <vehicle id="36" depart="36.00">
        <route edges="68876135#1 68876135#2 68876135#3 68876135#4 68876135#5 68876135#6 68876135#7 68876135#8 68876135#9 68876135#10 -23805085#6 -23805085#5 -23805085#4 -23805085#3 -23805085#2 -23805085#1 -23805085#0 23805083#3 23805083#4 23805084 -4655478#6 -4655478#5 -4655478#4 -4655478#3 -4655478#2 -4655478#1 -4655478#0 -1003195824 -926028933 -1003195825#5 -1003195825#4 -1003195825#3 -1003195825#2 -1003195825#1 -1003195825#0 -926028934#7 -926028934#6 -926028934#5 -926028934#4 -926028934#3 -926028934#2 -926028934#1 -926028934#0 -182926053#35 -182926053#34 -182926053#33 -182926053#32 -182926053#31 -182926053#30 -182926053#29 -182926053#28 -182926053#27 -182926053#26 -182926053#25 -182926053#24 -182926053#23 -182926053#22 -182926053#21 -182926053#20 -182926053#19 -182926053#18 -182926053#17 -182926053#16 -12475243#14 -12475243#13 -12475243#12 -12475243#11 -12475243#10 -12475243#9 -12475243#8 -12475243#7 -12475243#6 -12475243#5 -12475243#4 -12475243#3 -12475243#2 -12475243#1 -12475243#0 -641659902#6 -641659902#5 -641659902#4 -641659902#3 -641659902#2 -641659902#1 -641659902#0 -1003195821#2 -1003195821#1 -1003195821#0 1003195821#0"/>
    </vehicle>
    <vehicle id="37" depart="37.00">
        <route edges="-683436413#6 -683436413#5 -683436413#4 -683436413#3 -683436413#2 -683436413#1 -683436413#0 -683436410#1 -683436410#0 683436408#0 683436428#0 683436428#1 -678286765#7 -678286765#6 -678286765#5 -678286765#4 -678286765#3 -678286765#2 -678286765#1 -678286765#0 -616801488#14 -616801488#13 -616801488#12 -616801488#11 -616801488#10 -616801488#9 -616801488#8 -616801488#7 -616801488#6 -616801488#5 -616801488#4 -616801488#3 -616801488#2 -616801488#1 -616801488#0 -823361292#11 -823361292#10 -23238113#5 -23238113#4 68083824#0 68083824#1 -68083819#4 -68083819#3"/>
    </vehicle>
    <vehicle id="38" depart="38.00">
        <route edges="23299693#2 23589346#9 23589346#10 23589346#11 23589346#12 23589346#13 23589346#14 23589346#15 23589346#16 23589346#17 23589346#18 23589346#19 -12475242#2 -12475242#1 -12475242#0 1003195825#0 1003195825#1 1003195825#2 1003195825#3 1003195825#4 1003195825#5 926028933 1003195824 4655478#0 4655478#1 4655478#2 4655478#3 4655478#4 4655478#5 4655478#6 4655478#7 4655478#8 4655478#9 4655478#10 4655478#11 4655478#12 4655478#13 -230846290#5 -230846290#4 -230846290#3 -230846290#2 -230846290#1 -230846290#0 -11967573#6 -11967573#5 -11967573#4 -11967573#3 -11967573#2 -11967573#1 -11967573#0 -121679907#21 -68085007#1 -68085007#0 -68085006#12 -68085008#5 -68085008#4 -68085008#3 -68085008#2 -68085008#1 -68085009"/>
    </vehicle>
    <vehicle id="39" depart="39.00">
        <route edges="23589348#0 23299693#2 23589346#9 23589346#10 23589346#11 23589346#12 23589346#13 23589346#14 23589346#15 23589346#16 23589346#17 23589346#18 23589346#19 -12475242#2 -12475242#1 -12475242#0 1003195825#0 1003195825#1 1003195825#2 1003195825#3 1003195825#4 1003195825#5 926028933 1003195824 4655478#0 4655478#1 4655478#2 4655478#3 4655478#4 4655478#5 4655478#6 4655478#7 4655478#8 4655478#9 4655478#10 4655478#11 4655478#12 4655478#13 4655478#14 4655478#15 4655478#16 4655478#17 4655478#18 4655478#19 683436407#0 683436407#1 683436407#2 1262906170 1262906171 683436410#0 683436410#1 683436413#0 683436413#1 683436413#2 683436413#3 683436413#4 683436413#5 683436413#6 683436413#7 683436413#8 683436413#9 68756039#0 68756039#1"/>
    </vehicle>
    <vehicle id="40" depart="40.00">