<?xml version="1.0" encoding="UTF-8"?>

<!-- generated on 2025-05-10 13:48:59.888133 by randomTrips.py v1_22_0+0002-63e50f52594
<configuration>
    <net-file value="NewCastle.net.xml"/>
    <output-trip-file value="NewCastle.rou.xml"/>
    <validate value="True"/>
    <end value="300.0"/>
    <period value="1.0"/>
</configuration>
-->

<!-- generated on 2025-05-10 13:48:59 by Eclipse SUMO duarouter Version 1.22.0
<duarouterConfiguration xmlns:xsi="http://www.w3.org/2001/XMLSchema-instance" xsi:noNamespaceSchemaLocation="http://sumo.dlr.de/xsd/duarouterConfiguration.xsd">

    <input>
        <net-file value="NewCastle.net.xml"/>
        <route-files value="NewCastle.rou.xml"/>
    </input>

    <output>
        <output-file value="routes.rou.xml"/>
        <alternatives-output value="NUL"/>
    </output>

    <time>
        <begin value="0.0"/>
        <end value="300.0"/>
    </time>

    <report>
        <no-warnings value="true"/>
        <ignore-errors value="true"/>
        <no-step-log value="true"/>
    </report>

</duarouterConfiguration>
-->

<routes xmlns:xsi="http://www.w3.org/2001/XMLSchema-instance" xsi:noNamespaceSchemaLocation="http://sumo.dlr.de/xsd/routes_file.xsd">
    <vehicle id="0" depart="0.00">
        <route edges="27761399#1 27761399#2 -27761399#2 -27761399#1 -27761399#0 -27761421#3 -27761421#2 -27761421#1 -27761421#0 -946126772 -946126773#1 -946126773#0 -121679911#8 -121679911#7 -121679911#6 -121679911#5 -121679911#4 -121679911#3 -121679911#2 -121679911#1 -121679911#0 -641659902#6 -641659902#5 -641659902#4 -641659902#3 -641659902#2 -641659902#1 -641659902#0 -1003195821#2 -1003195821#1 -1003195821#0 -121679883#5 -121679883#4 -121679883#3 -121679883#2 -121679883#1 -121679883#0 -5024005#14 -5024005#13 -5024005#12 -5024005#11 -5024005#10 -5024005#9 -5024005#8 -5024005#7 -5024005#6 -68579551#11 -68579551#10 -68579551#9 -68579551#8 -68579551#7 -68579551#6 -68579551#5 -68579551#4 -68579551#3 -68579551#2 -68579551#1 -68579551#0 -102540368#0 -11967564#16 -11967564#15 -11967564#14 -11967564#13 -11967564#12 -11967564#11 -11967564#10 -11967564#9 -11967564#8 -11967564#7 -11967564#6 -11967564#5"/>
    </vehicle>
    <vehicle id="1" depart="1.00">
        <route edges="-68085008#2 68085008#2 68085008#3 68085006#8 68085007#0 68085007#1 -121679907#17 -121679907#16 -121679907#15 -121679907#14 -121679907#13 -121679907#12 -121679907#11 -121679907#10 -121679907#9 -121679907#8 -121679907#7 -121679907#6 -121679907#5 -121679907#4 -121679907#3 -121679907#2 -68565677#5 -68565677#4 -68565677#3 -68565677#2 -68565677#1 -68565677#0 23299697#2 23299697#3 23299697#4 -1003195823#4 -1003195823#3 -1003195823#2 -1003195823#1 -1003195823#0 -859353074 -1003195822#2 -1003195822#1 -1003195822#0 -121679913#4 -121679913#3 -121679913#2 -121679913#1 -121679913#0 -946126772 -946126773#1 -946126773#0 -121679911#8 -121679911#7 -121679911#6 -121679911#5 -121679911#4 -121679911#3 -121679911#2 -121679911#1 -121679911#0 -641659902#6 -641659902#5 -641659902#4 -641659902#3 -641659902#2 -641659902#1 -641659902#0 -28446421#5 -28446421#4 -28446421#3 -28446421#2 -28446421#1 -28446421#0 28451309#0 28451309#1 28451309#2 4644976#0 4644976#1 4644976#2 4644976#3 -4644976#3 -4644976#2 -4644976#1 -4644976#0"/>
    </vehicle>
    <vehicle id="3" depart="3.00">
        <route edges="68756027#1 996141193 68756046 996101630#0 996101630#1 996101630#2 68756023#0 68756023#1 858813354#0 858813354#1 733897224 68756101 1058344629 461119579 1058344628#0 1058344628#1 1058344628#2 1058344628#3 650010534 650010535#0 650010535#1 650010535#2 -461119586 -658966235#1 -658966235#0 -683436413#9 -683436413#8 -683436413#7 -683436413#6 742959371 -230845568"/>
    </vehicle>
    <vehicle id="4" depart="4.00">
        <route edges="-823361292#7 823361292#7 823361292#8 823361292#9 -23238113#5 -23238113#4 -23238113#3 -23238113#2 -23238113#1 -23238113#0 121679907#7 121679907#8 121679907#9 121679907#10 121679907#11 121679907#12 121679907#13 121679907#14 121679907#15 121679907#16 121679907#17 121679907#18 11967574#0 11967574#1 -11967574#1"/>
    </vehicle>
    <vehicle id="6" depart="6.00">
        <route edges="-11967570#1 -11967570#0 -860298904#2 -860298904#1 -860298904#0 12475244 694151964#0 694151964#1 694151964#2 694151964#3 -35742485#22 -35742485#21 -35742485#20 -35742485#19 -35742485#18 -35742485#17 -35742485#16 -35742485#15 -35742485#14 -35742485#13 -35742485#12 -35742485#11 -35742485#10"/>
    </vehicle>
    <vehicle id="7" depart="7.00">
        <route edges="27917719 27917717#1 -27917720#13 -27917720#12 35823679#2 182926053#30 182926053#31 182926053#32 182926053#33 182926053#34 182926053#35 926028934#0 926028934#1 926028934#2 926028934#3 926028934#4 926028934#5 926028934#6 926028934#7 1003195825#0 1003195825#1 1003195825#2 1003195825#3 1003195825#4 1003195825#5 926028933 1003195824 4655478#0 4655478#1 4655478#2 4655478#3 4655478#4 4655478#5 4655478#6 4655478#7 4655478#8 4655478#9 4655478#10 4655478#11 4655478#12 4655478#13 4655478#14 4655478#15 4655478#16 4655478#17 4655478#18 4655478#19 683436407#0 683436407#1 683436407#2 1262906170 1262906171 683436410#0 683436410#1 683436413#0 683436413#1 683436413#2 683436413#3 683436413#4 683436413#5 683436413#6 683436413#7 683436413#8 683436413#9 68756039#0 68756039#1 733897223#0 733897223#1 650010536 650010533#0 650010533#1 650010533#2 1026438673#0 1026438673#1 1026438672#0 1026438672#1 -137355167#2 -137355167#1 -137355167#0 137378067#0 137378067#1 230835689#0 -137354726#1 137354726#1"/>
    </vehicle>
    <vehicle id="8" depart="8.00">
        <route edges="-43794239#7 -43794239#6 -43794239#5 -43794239#4 -43794239#3 -43794239#2 -43794239#1 -43794239#0 -12475243#8 -12475243#7 -12475243#6 -12475243#5 -12475243#4 -12475243#3 -12475243#2 -12475243#1 -12475243#0 121679911#0 121679911#1 121679911#2 121679911#3 121679911#4 121679911#5 121679911#6 121679911#7 121679911#8 946126773#0 946126773#1 946126772 121679913#0 121679913#1 121679913#2 121679913#3 121679913#4 1003195822#0 1003195822#1 1003195822#2 859353074 1003195823#0 1003195823#1 1003195823#2 1003195823#3 1003195823#4 -23299697#4 -23299697#3 -23299697#2 68565677#0 68565677#1 68565677#2 68565677#3 68565677#4 68565677#5 121679907#2 121679907#3 121679907#4 121679907#5 121679907#6 121679907#7 121679907#8 121679907#9 121679907#10 23238176#0"/>
    </vehicle>
    <vehicle id="9" depart="9.00">
        <route edges="68569226#1 68569226#2 68569226#3 35742485#21 35742485#22 364338945#0 364338945#1 364338945#2 364338945#3 364338945#4 364338945#5 364338945#6 364338945#7 12475243#0 12475243#1 12475243#2 12475243#3 12475243#4 12475243#5 12475243#6 12475243#7 12475243#8 12475243#9 12475243#10 12475243#11 12475243#12 12475243#13 12475243#14 182926053#16 182926053#17 182926053#18 182926053#19 182926053#20 182926053#21 182926053#22 182926053#23 182926053#24 182926053#25 182926053#26 182926053#27 182926053#28 182926053#29 182926053#30 182926053#31 182926053#32 182926053#33 182926053#34 182926053#35 926028934#0 926028934#1 926028934#2 926028934#3 926028934#4 926028934#5 926028934#6 926028934#7 1003195825#0 1003195825#1 1003195825#2 1003195825#3 1003195825#4 1003195825#5 926028933 1003195824 23238116#0 23238116#1 23238116#2 23238116#3 23238116#4 23238116#5 31992779#0 31992779#1 2542479#0 2542479#1 2542479#2 2542479#3 2542479#4 2542479#5 2542479#6 2542479#7 2542479#8 2542479#9 885671118#0 885671118#1 885671118#2 885671118#3 885671118#4 885671118#5 885671118#6 885671118#7 463890077#0 463890077#1 641651029 36529641 996141194#0 996141194#1 996141195#0 996141195#1 996141195#2 641651028#0 641651028#1 641651028#2 996141193 68756046 996101630#0 996101630#1 996101630#2 1053066061#0 1053066061#1 1053066061#2 1053066062 1053066068#0 1053066068#1 2535382#0 2535350#0 2535350#1 990834099 990834100 -2535383#4 -2535383#3 -2535383#2 -2535383#1 -2535383#0 -985837487 2535384#1 723584180#0 723584180#1 723584180#2 723584180#3 723584180#4 -1053979388#2 -1053979388#1 -1053979388#0 -1026085894#2 -1026085894#1 -1026085894#0"/>
    </vehicle>
    <vehicle id="10" depart="10.00">
        <route edges="68569222#1 68569222#2 68569222#3 68569222#4 68569222#5 68569222#6 68569222#7 68569222#8 68569222#9 68569222#10 68569222#11 68569222#12 68569222#13 68569222#14 23238108#1 23238108#2 23238108#3 23238108#4 694151963#0 694151963#1 -121679913#4 -121679913#3 -121679913#2 -121679913#1 -121679913#0 -946126772 -946126773#1 -946126773#0 -121679911#8 -121679911#7 -121679911#6 -121679911#5 -121679911#4 -121679911#3 -121679911#2 -121679911#1 -121679911#0 -641659902#6 -641659902#5 -641659902#4 -641659902#3 -641659902#2 -641659902#1 -641659902#0 -1003195821#2 -1003195821#1 -1003195821#0 -121679883#5 -121679883#4 -121679883#3 -121679883#2 -121679883#1 -121679883#0 -5024005#14 -5024005#13 -5024005#12 -5024005#11 -5024005#10 -5024005#9 -5024005#8 -5024005#7 -5024005#6 -68579551#11 -68579551#10 -68579551#9 -68579551#8 -68579551#7 -68579551#6 -68579551#5 -68579551#4 -68579551#3 -68579551#2 -68579551#1 -68579551#0 102540368#1 694151962#0 694151962#1 694151962#2 694151962#3 694151962#4 694151962#5 694151962#6 102540369#0 102540369#1 121722151#0 121722151#1 121722151#2 921453997#2 4662074#0 4662074#1 4662074#2 921453992 2953846 11967584#3 60893145 2953812#0 2953812#1 2953812#2 2953812#3 2953812#4 31992865#0 31992865#1 31992865#2 31992865#3 31992865#4 31992865#5"/>
    </vehicle>
    <vehicle id="11" depart="11.00">
        <route edges="-68581597#1 68581600#1 68581612#0 68581612#1 68581612#2 262609623#10 5024005#7 5024005#8 5024005#9 5024005#10 5024005#11 5024005#12 5024005#13 5024005#14 121679883#0 121679883#1 121679883#2 121679883#3 121679883#4 121679883#5 1003195821#0 1003195821#1 1003195821#2 641659902#0 641659902#1 641659902#2 641659902#3 641659902#4 641659902#5 641659902#6 12475243#0 12475243#1 12475243#2 12475243#3 12475243#4 12475243#5 12475243#6 12475243#7 12475243#8 12475243#9 12475243#10 12475243#11 12475243#12 12475243#13 12475243#14 182926053#16 182926053#17 182926053#18 182926053#19 182926053#20 182926053#21 182926053#22 182926053#23 182926053#24 182926053#25 182926053#26 182926053#27 182926053#28 182926053#29 182926053#30 182926053#31 182926053#32 182926053#33 182926053#34 182926053#35 926028934#0 926028934#1 926028934#2 926028934#3 926028934#4 926028934#5 926028934#6 926028934#7 1003195825#0 1003195825#1 1003195825#2 1003195825#3 1003195825#4 1003195825#5 926028933 1003195824 23238116#0 23238116#1 23238116#2 23238116#3 23238116#4 23238116#5 31992779#0 31992779#1 2542479#0 2542479#1 2542479#2 2542479#3 2542479#4 2542479#5 2542479#6 2542479#7 2542479#8 2542479#9 -2542479#9 -2542479#8"/>
    </vehicle>
    <vehicle id="12" depart="12.00">
        <route edges="72860649#1 72860649#2 72860649#3 -27917720#3 -27917720#2 -27917720#1 -27917720#0 -12475243#9 -12475243#8 -12475243#7 -12475243#6 -12475243#5 -12475243#4 -12475243#3 -12475243#2 -12475243#1 -12475243#0 121679911#0 121679911#1 121679911#2 121679911#3 121679911#4 -68580796#2 -68580796#1 -68580796#0 860298903#10 860298903#11 860298903#12 860298903#13 860298903#14 860298903#15 860298903#16 860298903#17 68580793#0 68580793#1 68580793#2 -68580793#2 -68580793#1"/>
    </vehicle>
    <vehicle id="13" depart="13.00">
        <route edges="-23238107#5 -23238107#4 -23238107#3 -23238107#2 23238107#2 23238107#3 23238107#4 23238107#5 23238107#6 23238107#7 23238107#8 23238107#9 23238107#10 23238107#11 23238107#12 1003195825#3 1003195825#4 1003195825#5 926028933 1003195824 23238116#0 23238116#1 23238116#2 23238116#3 23238116#4 23238116#5 -23238116#5 -23238116#4 -23238116#3 -23238116#2 -23238116#1"/>
    </vehicle>
    <vehicle id="14" depart="14.00">
        <route edges="68581511 -262609615#1 -262609615#0 -68579542#3 -68579542#2 -68579542#1 -68579542#0 28446421#0 28446421#1 28446421#2 28446421#3 28446421#4 28446421#5 641659902#0 641659902#1 641659902#2 641659902#3 641659902#4 641659902#5 641659902#6 12475243#0 12475243#1 12475243#2 12475243#3 12475243#4 12475243#5 12475243#6 12475243#7 12475243#8 12475243#9 12475243#10 12475243#11 12475243#12 12475243#13 12475243#14 182926053#16 182926053#17 182926053#18 182926053#19 182926053#20 182926053#21 182926053#22 182926053#23 182926053#24 182926053#25 182926053#26 182926053#27 182926053#28 182926053#29 182926053#30 182926053#31 182926053#32 182926053#33 182926053#34 182926053#35 926028934#0 926028934#1 926028934#2 926028934#3 926028934#4 926028934#5 926028934#6 926028934#7 12475242#0 12475242#1 -23656277#2 -23656277#1 23485026#4 23485026#5"/>
    </vehicle>
    <vehicle id="15" depart="15.00">
        <route edges="68569222#14 -23238108#0 733607726#0 733607726#1 121679907#0 121679907#1 121679907#2 121679907#3 121679907#4 121679907#5 121679907#6 121679907#7 121679907#8 121679907#9 121679907#10 121679907#11 121679907#12 121679907#13 121679907#14 121679907#15 121679907#16 121679907#17 121679907#18 11967573#0 11967573#1 11967573#2 11967573#3 11967573#4 11967573#5 460765372#0"/>
    </vehicle>
    <vehicle id="16" depart="16.00">
        <route edges="182926053#23 182926053#24 182926053#25 182926053#26 182926053#27 182926053#28 182926053#29 -182926053#29 -182926053#28 -182926053#27 -182926053#26 -182926053#25 -182926053#24 -182926053#23 -182926053#22 -182926053#21 -182926053#20 -182926053#19 -182926053#18 -182926053#17 -182926053#16 -12475243#14 -12475243#13 -12475243#12 -12475243#11 -12475243#10 -12475243#9 -12475243#8 -12475243#7 -12475243#6 -12475243#5 -12475243#4 -12475243#3 -12475243#2 -12475243#1 -12475243#0 121679911#0 121679911#1 121679911#2 121679911#3 121679911#4 -68580796#2 -68580796#1 -68580796#0 860298903#10 860298903#11"/>
    </vehicle>
    <vehicle id="17" depart="17.00">
        <route edges="-68876118#1 -68876118#0 68876118#0 68876118#1 68876118#2 68876115#5 68876115#6 -68876108#3 -68876108#2 -68876108#1 -68876108#0 262609617 -28907929#1 -28907929#0 1262900082 1262906171 683436410#0 683436410#1 683436413#0 683436413#1 683436413#2 683436413#3 683436413#4 683436413#5 683436413#6 683436413#7 683436413#8 683436413#9 658966235#0 658966235#1 461119586 4692270#0 4692270#1 4692270#2 4692270#3 4692270#4 4692270#5 -988616601#1 -988616601#0 -134818130#2 -134818130#1 -134818130#0 -1315301900#2 -1315301900#1 134818126#0 134818126#1 134818126#2 154692743"/>
    </vehicle>
    <vehicle id="18" depart="18.00">
        <route edges="68580000#4 68580000#5 68579992#2 68579992#3 68579992#4 104361306#7 104361306#8 104361306#9 121679883#0 121679883#1 121679883#2 121679883#3 121679883#4 121679883#5 1003195821#0 1003195821#1 1003195821#2 641659902#0 641659902#1 641659902#2 641659902#3 641659902#4 641659902#5 641659902#6 12475243#0 12475243#1 12475243#2 12475243#3 12475243#4 12475243#5 12475243#6 12475243#7 12475243#8 12475243#9 12475243#10 12475243#11 12475243#12 12475243#13 12475243#14 182926053#16 182926053#17 182926053#18 182926053#19 182926053#20 182926053#21 182926053#22 182926053#23 182926053#24 182926053#25 182926053#26 182926053#27 182926053#28 182926053#29 182926053#30 182926053#31 182926053#32 182926053#33 182926053#34 182926053#35 926028934#0 926028934#1 926028934#2 926028934#3 926028934#4 926028934#5 926028934#6 926028934#7 12475242#0 12475242#1 23656277#3"/>
    </vehicle>
    <vehicle id="19" depart="19.00">
        <route edges="68588210 -68588225#1 -68588225#0 182926053#3 -28451309#2 -28451309#1 -28451309#0 28446421#0 28446421#1 28446421#2 28446421#3 28446421#4 28446421#5 641659902#0 641659902#1 641659902#2 641659902#3 641659902#4 641659902#5 641659902#6 121679911#0 121679911#1 121679911#2 121679911#3 121679911#4 121679911#5 121679911#6 121679911#7 121679911#8 946126773#0 946126773#1 946126772 121679913#0 121679913#1 121679913#2 121679913#3 121679913#4 1003195822#0 1003195822#1 1003195822#2 859353074 1003195823#0 1003195823#1 1003195823#2 1003195823#3 1003195823#4 -23299697#4 68565687 230843457"/>
    </vehicle>
    <vehicle id="20" depart="20.00">
        <route edges="460765373#0 -460765372#0 11967573#6 -616801488#14 -616801488#13 -616801488#12 -616801488#11 -616801488#10 -616801488#9 -616801488#8 -616801488#7 -616801488#6 -616801488#5 -616801488#4 -616801488#3 -616801488#2 -616801488#1 -616801488#0 -823361292#11 -823361292#10 -823361292#9 -823361292#8 -823361292#7 -823361292#6 -823361292#5 -823361292#4 -823361292#3 -823361292#2 -823361292#1 -823361292#0 -1003195823#7 -1003195823#6 -1003195823#5 -1003195823#4 -1003195823#3 -1003195823#2 -1003195823#1 -1003195823#0 -859353074 -1003195822#2 -1003195822#1 -1003195822#0 -121679913#4 -121679913#3 -121679913#2 -121679913#1 -121679913#0 -946126772 -946126773#1 -946126773#0 -121679911#8 -121679911#7 -121679911#6 -121679911#5 -121679911#4 -121679911#3 -121679911#2 -121679911#1 -121679911#0 -641659902#6 -641659902#5 -641659902#4 -641659902#3 -641659902#2 -68580629#4 -68580629#3 -68580629#2 -68580629#1 -68580629#0 -35742485#19 -35742485#18 -35742485#17 -35742485#16 -458113201#3 -458113201#2 -458113201#1 -458113201#0 691360491#0 691360491#1 691360491#2 -12475246#7 -12475246#6 -12475246#5 -12475246#4 -12475246#3 -12475246#2"/>
    </vehicle>
    <vehicle id="21" depart="21.00">
        <route edges="-4644976#1 -4644976#0 -28451309#2 -28451309#1 -28451309#0 28446421#0 28446421#1 28446421#2 28446421#3 28446421#4 28446421#5 641659902#0 641659902#1 641659902#2 641659902#3 641659902#4 641659902#5 641659902#6 -364338945#7 -364338945#6 -364338945#5 -364338945#4 -364338945#3 -364338945#2 -364338945#1 -364338945#0 -694151964#3 -694151964#2 -694151964#1 -694151964#0 -68569127#3 -68569127#2 -364338944 -68569129#1 -68569129#0"/>
    </vehicle>
    <vehicle id="22" depart="22.00">
        <route edges="-230239893#1 -230239893#0 -72860639#3 -72860639#2 -72860639#1 -72860639#0 72860639#0 72860639#1 72860639#2 72860639#3 230239893#0 230239893#1 230239893#2 230239893#3 12475243#5 12475243#6 12475243#7 12475243#8 12475243#9 12475243#10 12475243#11 12475243#12 12475243#13 12475243#14 182926053#16 182926053#17 182926053#18 182926053#19 182926053#20 182926053#21 182926053#22 182926053#23 182926053#24 182926053#25 182926053#26 182926053#27 182926053#28 182926053#29 182926053#30 182926053#31 182926053#32 182926053#33 182926053#34 182926053#35 926028934#0 926028934#1 926028934#2 926028934#3 926028934#4 926028934#5 926028934#6 926028934#7 1003195825#0 1003195825#1 1003195825#2 1003195825#3 1003195825#4 1003195825#5 926028933 1003195824 23238116#0 23238116#1 23238116#2 23238116#3 23238116#4 23238116#5 31992779#0 31992779#1 2542479#0 2542479#1 2542479#2 2542479#3 2542479#4 2542479#5 2542479#6 2542479#7 2542479#8 2542479#9 885671118#0 885671118#1 885671118#2 885671118#3 885671118#4 885671118#5 885671118#6 885671118#7 463890077#0 463890077#1 -47290415#11 -47290415#10 -47290415#9"/>
    </vehicle>
    <vehicle id="23" depart="23.00">
        <route edges="-23247494#0 23299705#0 23299705#1 23299705#2 23299705#3 23299705#4 23299705#5 -23805086#5 -23805086#4 -23805086#3 -23805086#2 -23805086#1 -23805086#0 23805084 4655478#7 4655478#8 4655478#9 4655478#10 4655478#11 4655478#12 4655478#13 -230846290#5 -230846290#4 -230846290#3 -230846290#2 -230846290#1 -230846290#0 -11967573#6 -11967573#5 -11967573#4 -11967573#3 -11967573#2 68360007#0 68360007#1 68360007#2 68360005#2 1099893498 -68360003#2 -68360003#1"/>
    </vehicle>
    <vehicle id="24" depart="24.00">
        <route edges="27761389#1 27761391#0 27761391#1 -23238107#6 -23238107#5 -23238107#4 -23238107#3 -23238107#2 27761422#9 27761422#10 27761422#11 27761422#12 23238114#1 23238114#2 23238114#3 68741795#0 68741795#1 68741795#2 68741795#3 68741781#0 68741781#1 -68741784 -68741750#2 -68741742"/>
    </vehicle>
    <vehicle id="25" depart="25.00">
        <route edges="-68876080#1 -68876080#0 -68876142#0 68876135#0 68876135#1 68876135#2 68876135#3 68876135#4 68876135#5 68876135#6 68876135#7 68876135#8 68876135#9 68876135#10 -23805085#6 -23805085#5 -23805085#4 -23805085#3 -23805085#2 -23805085#1 -23805085#0 23805083#3 23805083#4 23805084 -4655478#6 -4655478#5 -4655478#4 -4655478#3 -4655478#2 -4655478#1 -4655478#0 -1003195824 -926028933 -1003195825#5 -1003195825#4 -1003195825#3 -1003195825#2 -1003195825#1 -1003195825#0 -926028934#7 -926028934#6 -926028934#5 -926028934#4 -926028934#3 -926028934#2 -926028934#1 -926028934#0 -182926053#35 -182926053#34 -182926053#33 -182926053#32 -182926053#31 -182926053#30 -182926053#29 -182926053#28 -182926053#27 -182926053#26 -182926053#25 -182926053#24 -182926053#23 -182926053#22 -182926053#21 -182926053#20 -182926053#19 -182926053#18 -182926053#17 -182926053#16 -12475243#14 -12475243#13 -12475243#12 -12475243#11 -12475243#10 -12475243#9 -12475243#8 -12475243#7 -12475243#6 -12475243#5 -12475243#4 -12475243#3 -12475243#2 -12475243#1 -12475243#0 -364338945#7 -364338945#6 -364338945#5 -364338945#4 -364338945#3 -364338945#2 -364338945#1"/>
    </vehicle>
    <vehicle id="26" depart="26.00">
        <route edges="-68083822#1 68083822#1 68083822#2 68083822#3 68083822#4 -68083813#0 -121679907#13 -121679907#12 -121679907#11 -121679907#10 -121679907#9 -121679907#8 -121679907#7 -121679907#6 -121679907#5 -121679907#4 -121679907#3 -121679907#2 -68565677#5 -68565677#4 -68565677#3 -68565677#2 -68565677#1 -68565677#0 23299697#2 23299697#3 23299697#4 -1003195823#4 -1003195823#3 -1003195823#2 -1003195823#1 -1003195823#0 -859353074 -1003195822#2 -1003195822#1 -1003195822#0 -121679913#4 -121679913#3 -121679913#2 -121679913#1 -121679913#0 -946126772 -946126773#1 -946126773#0 -121679911#8 -121679911#7 -121679911#6 -121679911#5 -121679911#4 -121679911#3 -121679911#2 -121679911#1 -121679911#0 12475243#0 12475243#1 12475243#2 12475243#3 12475243#4 12475243#5 12475243#6 12475243#7 -69042222#3 -69042222#2 -69042222#1 -69042222#0 -69042221#3 69042223#0 69042223#1 69042223#2"/>
    </vehicle>
    <vehicle id="27" depart="27.00">
        <route edges="27761422#7 27761422#8 23238107#2 23238107#3 23238107#4 23238107#5 23238107#6 23238107#7 23238107#8 23238107#9 23238107#10 23238107#11 23238107#12 -1003195825#2 -1003195825#1 -1003195825#0 12475242#0 12475242#1 12475242#2 -23589346#19 -23589346#18 -23589346#17 -23589346#16 -23589346#15 -23589346#14 -23589346#13 -23589346#12 -23589346#11 23589346#11"/>
    </vehicle>
    <vehicle id="28" depart="28.00">
        <route edges="-27761393#1 -27761393#0 27761422#3 27917724 121679913#4 1003195822#0 1003195822#1 1003195822#2 859353074 1003195823#0 1003195823#1 1003195823#2 1003195823#3 1003195823#4 -23299697#4 -23299697#3 -23299697#2 68565677#0 68565677#1 68565677#2 68565677#3 68565677#4 68565677#5 121679907#2 121679907#3 121679907#4 121679907#5 121679907#6 121679907#7 121679907#8 121679907#9 121679907#10 121679907#11 121679907#12 121679907#13 121679907#14 460739363"/>
    </vehicle>
    <vehicle id="29" depart="29.00">
        <route edges="-262609623#5 -262609623#4 -262609623#3 -262609623#2 -262609623#1 -262609623#0 -262609615#3 -262609615#2 -262609615#1 -262609615#0 -68579542#3 -68579542#2 -68579542#1 -68579542#0 28446421#0 28446421#1 28446421#2 28446421#3 28446421#4 28446421#5 641659902#0 641659902#1 641659902#2 641659902#3 641659902#4 641659902#5 641659902#6 121679911#0 121679911#1 121679911#2 121679911#3 121679911#4 121679911#5 121679911#6 121679911#7 121679911#8 946126773#0 946126773#1 946126772 121679913#0 121679913#1 121679913#2 121679913#3 121679913#4 1003195822#0 1003195822#1 1003195822#2 859353074 1003195823#0 1003195823#1 1003195823#2 1003195823#3 1003195823#4 1003195823#5 1003195823#6 1003195823#7 23238114#0 23238114#1 23238114#2 23238114#3 68741795#0 68741795#1 68741795#2 -68741795#2"/>
    </vehicle>
    <vehicle id="30" depart="30.00">
        <route edges="923840881#0 923840882 683436413#7 683436413#8 683436413#9 68756039#0 68756039#1 733897223#0 733897223#1 733897223#2 733897223#3 650010537 1301164220#0 1301164220#1 1301164220#2 68756019#0 68756019#1 68756019#2 68756019#3 988738143 1053066061#0 1053066061#1 1053066061#2 1053066062 1053066068#0 1053066068#1 2535382#0 2535350#0"/>
    </vehicle>
    <vehicle id="31" depart="31.00">
        <route edges="23238107#12 1003195825#3 1003195825#4 1003195825#5 926028933 1003195824 23238116#0 23238116#1 23238116#2 23238116#3 23238116#4 23238116#5 31992779#0 31992779#1 2542479#0 2542479#1 2542479#2 2542479#3 2542479#4 2542479#5 2542479#6 2542479#7 2542479#8 2542479#9 885671118#0 885671118#1 885671118#2 885671118#3 885671118#4 885671118#5 885671118#6 885671118#7 28907928#0 28907928#1 28907928#2"/>
    </vehicle>
    <vehicle id="32" depart="32.00">
        <route edges="68580794 -68580793#1 -68580793#0 860298903#18 860298903#19 860298903#20 -23238108#4 -23238108#3 -23238108#2 -23238108#1 -23238108#0 733607726#0 733607726#1 121679907#0 121679907#1 121679907#2 121679907#3 121679907#4 121679907#5 121679907#6 121679907#7 121679907#8 121679907#9 121679907#10 121679907#11 121679907#12 121679907#13 121679907#14 121679907#15 121679907#16 121679907#17 121679907#18 11967574#0 11967574#1 11967574#2 860298931 2535152#0 2535152#1 2535152#2 2535152#3 68756086#0 68756086#1 68756086#2 68756086#3 2543189 658966229"/>
    </vehicle>
    <vehicle id="33" depart="33.00">
        <route edges="-4655478#10 -4655478#9 -4655478#8 -4655478#7 -4655478#6 -4655478#5 -4655478#4 -4655478#3 -4655478#2 -4655478#1 -4655478#0 -1003195824 -926028933 -1003195825#5 -1003195825#4 -1003195825#3 -1003195825#2 -1003195825#1 -1003195825#0 -926028934#7 -926028934#6 -926028934#5 -926028934#4 -926028934#3 -926028934#2 -926028934#1 -926028934#0 -182926053#35 -182926053#34 -182926053#33 -182926053#32 -182926053#31 -182926053#30 -182926053#29 -182926053#28 -182926053#27 -182926053#26 -182926053#25 -182926053#24 -182926053#23 -182926053#22 -182926053#21 -182926053#20 -182926053#19 -182926053#18 -182926053#17 -182926053#16 -12475243#14 -12475243#13 -12475243#12 -12475243#11 -12475243#10 -12475243#9 -12475243#8 -12475243#7 -12475243#6 -12475243#5 -12475243#4 -12475243#3 -12475243#2 -12475243#1 -12475243#0 -641659902#6 -641659902#5 -641659902#4 -641659902#3 -641659902#2 -641659902#1 -641659902#0 -1003195821#2 -1003195821#1 -1003195821#0 -121679883#5"/>
    </vehicle>
    <vehicle id="34" depart="34.00">
        <route edges="-68579990 68579987#1 68579987#2 68579551#8 68579551#9 68579551#10 68579551#11 5024005#6 5024005#7 5024005#8 5024005#9 5024005#10 5024005#11 5024005#12 5024005#13 5024005#14 121679883#0 121679883#1 121679883#2 121679883#3 121679883#4 121679883#5 1003195821#0 1003195821#1 1003195821#2 641659902#0 641659902#1 641659902#2 641659902#3 641659902#4 641659902#5 641659902#6 121679911#0 121679911#1 121679911#2 121679911#3 121679911#4 121679911#5 121679911#6 121679911#7 121679911#8 946126773#0 946126773#1 946126772 121679913#0 121679913#1 121679913#2 121679913#3 121679913#4 1003195822#0 1003195822#1 1003195822#2 859353074 1003195823#0 1003195823#1 1003195823#2 1003195823#3 1003195823#4 -23299697#4 -23299697#3 -23299697#2 68565677#0 68565677#1 68565677#2 68565677#3 68565677#4 68565677#5 121679907#2 121679907#3 121679907#4 121679907#5 121679907#6 121679907#7 121679907#8 121679907#9 121679907#10 121679907#11 121679907#12 121679907#13 121679907#14 121679907#15 121679907#16 121679907#17 -68085007#1 -68085007#0 -68085006#8 -68085006#7 -68084991"/>
    </vehicle>
    <vehicle id="35" depart="35.00">
        <route edges="-364336497 364336497 694151964#1 694151964#2 694151964#3 -35742485#22 -35742485#21 -35742485#20 -35742485#19 -35742485#18 -35742485#17 -35742485#16 -458113201#3 -458113201#2 -458113201#1 -458113201#0 691360491#0"/>
    </vehicle>
    <vehicle id="36" depart="36.00">
        <route edges="68741748#1 -68741747#0 68741785 -68741781#3 -68741781#2 -68741781#1 -68741781#0 -68741795#3 -68741795#2 -68741795#1 -68741795#0 -23238114#3 -23238114#2 -23238114#1 -23238114#0 -1003195823#7 -1003195823#6 -1003195823#5 -1003195823#4 -1003195823#3 -1003195823#2 -1003195823#1 -1003195823#0 -859353074 -1003195822#2 -1003195822#1 -1003195822#0 -121679913#4 -121679913#3 -121679913#2 -121679913#1 -121679913#0 -946126772 -946126773#1 -946126773#0 -121679911#8 -121679911#7 -121679911#6 -121679911#5 -121679911#4 -121679911#3 -121679911#2 -121679911#1 -121679911#0 -641659902#6 -641659902#5 -641659902#4 -641659902#3 -641659902#2 -641659902#1 -641659902#0 -1003195821#2 -1003195821#1 -1003195821#0 -121679883#5 -121679883#4 -121679883#3 -121679883#2 -121679883#1 -121679883#0 -5024005#14 -5024005#13 -5024005#12 -5024005#11 -5024005#10 -5024005#9 -5024005#8 -5024005#7 -5024005#6 -68579551#11 -68579551#10"/>
    </vehicle>
    <vehicle id="37" depart="37.00">
        <route edges="28446314#1 -28446314#1 -28446314#0 28446317#1 182926053#2 182926053#3 182926053#4 182926053#5 182926053#6 182926053#7 182926053#8 182926053#9 182926053#10 182926053#11 182926053#12 182926053#13 182926053#14 182926053#15 182926053#16 182926053#17 182926053#18 182926053#19 182926053#20 182926053#21 182926053#22 182926053#23 182926053#24 182926053#25 182926053#26 182926053#27 182926053#28 182926053#29 182926053#30 182926053#31 182926053#32 182926053#33 182926053#34 182926053#35 926028934#0 926028934#1 926028934#2 926028934#3 926028934#4 926028934#5 926028934#6 926028934#7 1003195825#0 1003195825#1 1003195825#2 1003195825#3 1003195825#4 1003195825#5 926028933 1003195824 4655478#0 4655478#1 4655478#2 4655478#3 4655478#4 4655478#5 4655478#6 4655478#7 4655478#8 4655478#9 4655478#10 4655478#11 4655478#12 844049948#0 23299698#0 68876128 68876131#2 68876131#3 -68876135#7 -68876135#6 -68876135#5 -68876126"/>
    </vehicle>
    <vehicle id="38" depart="38.00">
        <route edges="68876124 863098163#2 -629018360#1 -629018360#0 -68876142#5 -68876142#4 -68876142#3 -68876142#2 -68876142#1 -68876142#0 68876135#0 68876135#1 68876135#2 68876135#3 68876135#4 68876135#5 68876135#6 68876135#7 68876135#8 68876135#9 68876135#10 -23805085#6 -23805085#5 -23805085#4 -23805085#3 -23805085#2 -23805085#1 -23805085#0 23805083#3 23805083#4 23805084 -4655478#6 -4655478#5 -4655478#4 -4655478#3 -4655478#2 -4655478#1 -4655478#0 -1003195824 -926028933"/>
    </vehicle>
    <vehicle id="39" depart="39.00">